97881.cdx
  Mrv1902 05222410212D          

 38 40  0  0  0  0            999 V2000
    9.0709   -9.0394    0.0000 O   0  0  0  0  0  0  0  0  0  0  0  0
    8.3591   -9.4565    0.0000 C   0  0  2  0  0  0  0  0  0  0  0  0
    7.6419   -9.0487    0.0000 O   0  0  0  0  0  0  0  0  0  0  0  0
    6.9302   -9.4658    0.0000 C   0  0  1  0  0  0  0  0  0  0  0  0
    6.9356  -10.2908    0.0000 C   0  0  2  0  0  0  0  0  0  0  0  0
    7.6527  -10.6986    0.0000 C   0  0  1  0  0  0  0  0  0  0  0  0
    8.3645  -10.2815    0.0000 C   0  0  1  0  0  0  0  0  0  0  0  0
    6.2130   -9.0580    0.0000 C   0  0  0  0  0  0  0  0  0  0  0  0
    7.6581  -11.5236    0.0000 O   0  0  0  0  0  0  0  0  0  0  0  0
    6.2238  -10.7079    0.0000 O   0  0  0  0  0  0  0  0  0  0  0  0
    9.0816  -10.6893    0.0000 O   0  0  0  0  0  0  0  0  0  0  0  0
    5.5013   -9.4751    0.0000 O   0  0  0  0  0  0  0  0  0  0  0  0
    7.6362   -6.5450    0.0000 C   0  0  0  0  0  0  0  0  0  0  0  0
    8.3506   -6.9575    0.0000 C   0  0  2  0  0  0  0  0  0  0  0  0
    9.0651   -6.5450    0.0000 C   0  0  0  0  0  0  0  0  0  0  0  0
    9.0651   -5.7200    0.0000 C   0  0  0  0  0  0  0  0  0  0  0  0
    8.3506   -7.7825    0.0000 C   0  0  2  0  0  0  0  0  0  0  0  0
    9.0651   -8.1950    0.0000 C   0  0  1  0  0  0  0  0  0  0  0  0
    9.7796   -7.7825    0.0000 O   0  0  0  0  0  0  0  0  0  0  0  0
    9.7796   -6.9575    0.0000 C   0  0  0  0  0  0  0  0  0  0  0  0
    6.9217   -7.7825    0.0000 C   0  0  0  0  0  0  0  0  0  0  0  0
    7.6362   -8.1950    0.0000 C   0  0  0  0  0  0  0  0  0  0  0  0
    8.3506   -8.6075    0.0000 H   0  0  0  0  0  0  0  0  0  0  0  0
    8.3506   -6.1325    0.0000 H   0  0  0  0  0  0  0  0  0  0  0  0
    8.3506   -5.3075    0.0000 O   0  0  0  0  0  0  0  0  0  0  0  0
    9.7796   -5.3075    0.0000 O   0  0  0  0  0  0  0  0  0  0  0  0
    9.7796   -4.4825    0.0000 C   0  0  0  0  0  0  0  0  0  0  0  0
    6.9217   -6.9575    0.0000 C   0  0  0  0  0  0  0  0  0  0  0  0
    6.2072   -6.5450    0.0000 C   0  0  0  0  0  0  0  0  0  0  0  0
    6.2072   -5.7200    0.0000 C   0  0  0  0  0  0  0  0  0  0  0  0
    5.4928   -5.3075    0.0000 N   0  0  0  0  0  0  0  0  0  0  0  0
    4.7783   -5.7200    0.0000 C   0  0  0  0  0  0  0  0  0  0  0  0
    4.7783   -6.5450    0.0000 C   0  0  0  0  0  0  0  0  0  0  0  0
    5.4928   -6.9575    0.0000 C   0  0  0  0  0  0  0  0  0  0  0  0
    4.0638   -6.9575    0.0000 C   0  0  0  0  0  0  0  0  0  0  0  0
    3.3494   -6.5450    0.0000 O   0  0  0  0  0  0  0  0  0  0  0  0
    4.0638   -7.7825    0.0000 O   0  0  0  0  0  0  0  0  0  0  0  0
    3.3494   -8.1950    0.0000 C   0  0  0  0  0  0  0  0  0  0  0  0
  2  1  1  1  0  0  0
  2  3  1  0  0  0  0
  3  4  1  0  0  0  0
  4  5  1  0  0  0  0
  5  6  1  0  0  0  0
  6  7  1  0  0  0  0
  7  2  1  0  0  0  0
  4  8  1  1  0  0  0
  6  9  1  1  0  0  0
  5 10  1  6  0  0  0
  7 11  1  6  0  0  0
  8 12  1  0  0  0  0
 13 14  1  0  0  0  0
 14 15  1  0  0  0  0
 15 16  1  0  0  0  0
 14 17  1  0  0  0  0
 17 18  1  0  0  0  0
 18 19  1  0  0  0  0
 19 20  1  0  0  0  0
 20 15  2  0  0  0  0
 21 22  2  0  0  0  0
 22 17  1  0  0  0  0
 17 23  1  1  0  0  0
 14 24  1  1  0  0  0
 18  1  1  1  0  0  0
 16 25  2  0  0  0  0
 16 26  1  0  0  0  0
 26 27  1  0  0  0  0
 13 28  2  0  0  0  0
 28 29  1  0  0  0  0
 29 30  2  0  0  0  0
 30 31  1  0  0  0  0
 31 32  2  0  0  0  0
 32 33  1  0  0  0  0
 33 34  2  0  0  0  0
 34 29  1  0  0  0  0
 33 35  1  0  0  0  0
 35 36  2  0  0  0  0
 35 37  1  0  0  0  0
 37 38  1  0  0  0  0
M  END
>  <cdx:fragmentId>
105

$$$$
