97891.cdx
  Mrv1902 05222410232D          

 46 50  0  0  0  0            999 V2000
    5.6786   -8.9681    0.0000 C   0  0  0  0  0  0  0  0  0  0  0  0
    5.6786   -9.7931    0.0000 C   0  0  1  0  0  0  0  0  0  0  0  0
    6.3931  -10.2056    0.0000 C   0  0  0  0  0  0  0  0  0  0  0  0
    7.1076   -9.7931    0.0000 C   0  0  0  0  0  0  0  0  0  0  0  0
    7.1076   -8.9681    0.0000 C   0  0  2  0  0  0  0  0  0  0  0  0
    6.3931   -8.5556    0.0000 C   0  0  0  0  0  0  0  0  0  0  0  0
    7.8220  -10.2056    0.0000 C   0  0  0  0  0  0  0  0  0  0  0  0
    8.5365   -9.7931    0.0000 C   0  0  1  0  0  0  0  0  0  0  0  0
    8.5365   -8.9681    0.0000 C   0  0  2  0  0  0  0  0  0  0  0  0
    7.8220   -8.5556    0.0000 C   0  0  2  0  0  0  0  0  0  0  0  0
    9.2510   -8.5556    0.0000 C   0  0  1  0  0  0  0  0  0  0  0  0
    9.2510   -7.7306    0.0000 C   0  0  2  0  0  0  0  0  0  0  0  0
    8.5365   -7.3181    0.0000 C   0  0  0  0  0  0  0  0  0  0  0  0
    7.8220   -7.7306    0.0000 C   0  0  0  0  0  0  0  0  0  0  0  0
   10.0356   -8.8106    0.0000 C   0  0  0  0  0  0  0  0  0  0  0  0
   10.5205   -8.1431    0.0000 C   0  0  0  0  0  0  0  0  0  0  0  0
   10.0356   -7.4757    0.0000 C   0  0  2  0  0  0  0  0  0  0  0  0
   10.2491   -6.6788    0.0000 C   0  0  1  0  0  0  0  0  0  0  0  0
   11.0460   -6.4653    0.0000 C   0  0  0  0  0  0  0  0  0  0  0  0
    4.9642  -10.2056    0.0000 O   0  0  0  0  0  0  0  0  0  0  0  0
    7.1076   -8.1431    0.0000 C   0  0  0  0  0  0  0  0  0  0  0  0
    9.2510   -6.9056    0.0000 C   0  0  0  0  0  0  0  0  0  0  0  0
    9.6658   -6.0955    0.0000 C   0  0  0  0  0  0  0  0  0  0  0  0
   11.2596   -5.6684    0.0000 C   0  0  0  0  0  0  0  0  0  0  0  0
   12.0450   -5.4450    0.0000 C   0  0  2  0  0  0  0  0  0  0  0  0
   12.2585   -4.6481    0.0000 C   0  0  0  0  0  0  0  0  0  0  0  0
   13.0554   -4.4346    0.0000 C   0  0  0  0  0  0  0  0  0  0  0  0
   11.6752   -4.0647    0.0000 C   0  0  0  0  0  0  0  0  0  0  0  0
   12.6284   -6.0284    0.0000 C   0  0  0  0  0  0  0  0  0  0  0  0
   13.4253   -5.8148    0.0000 C   0  0  0  0  0  0  0  0  0  0  0  0
    7.8220   -9.3806    0.0000 H   0  0  0  0  0  0  0  0  0  0  0  0
    8.5365   -8.1431    0.0000 H   0  0  0  0  0  0  0  0  0  0  0  0
    9.2510   -9.3806    0.0000 H   0  0  0  0  0  0  0  0  0  0  0  0
   10.8325   -7.2622    0.0000 H   0  0  0  0  0  0  0  0  0  0  0  0
    4.2497   -9.7931    0.0000 C   0  0  2  0  0  0  0  0  0  0  0  0
    4.2497   -8.9681    0.0000 O   0  0  0  0  0  0  0  0  0  0  0  0
    3.5352   -8.5556    0.0000 C   0  0  1  0  0  0  0  0  0  0  0  0
    2.8207   -8.9681    0.0000 C   0  0  2  0  0  0  0  0  0  0  0  0
    2.8207   -9.7931    0.0000 C   0  0  1  0  0  0  0  0  0  0  0  0
    3.5352  -10.2056    0.0000 C   0  0  1  0  0  0  0  0  0  0  0  0
    3.5352   -7.7306    0.0000 C   0  0  0  0  0  0  0  0  0  0  0  0
    2.1063  -10.2056    0.0000 O   0  0  0  0  0  0  0  0  0  0  0  0
    3.5352  -11.0306    0.0000 O   0  0  0  0  0  0  0  0  0  0  0  0
    2.1063   -8.5556    0.0000 O   0  0  0  0  0  0  0  0  0  0  0  0
    2.8207   -7.3181    0.0000 O   0  0  0  0  0  0  0  0  0  0  0  0
    9.2510  -10.2056    0.0000 O   0  0  0  0  0  0  0  0  0  0  0  0
  1  2  1  0  0  0  0
  2  3  1  0  0  0  0
  3  4  1  0  0  0  0
  4  5  1  0  0  0  0
  5  6  1  0  0  0  0
  6  1  1  0  0  0  0
  4  7  2  0  0  0  0
  7  8  1  0  0  0  0
  8  9  1  0  0  0  0
  9 10  1  0  0  0  0
 10  5  1  0  0  0  0
  9 11  1  0  0  0  0
 11 12  1  0  0  0  0
 12 13  1  0  0  0  0
 13 14  1  0  0  0  0
 14 10  1  0  0  0  0
 11 15  1  0  0  0  0
 15 16  1  0  0  0  0
 16 17  1  0  0  0  0
 17 12  1  0  0  0  0
 17 18  1  0  0  0  0
 18 19  1  0  0  0  0
  2 20  1  1  0  0  0
  5 21  1  1  0  0  0
 12 22  1  1  0  0  0
 18 23  1  6  0  0  0
 19 24  1  0  0  0  0
 25 24  1  6  0  0  0
 25 26  1  0  0  0  0
 26 27  1  0  0  0  0
 26 28  1  0  0  0  0
 25 29  1  0  0  0  0
 29 30  1  0  0  0  0
 10 31  1  6  0  0  0
  9 32  1  1  0  0  0
 11 33  1  6  0  0  0
 17 34  1  6  0  0  0
 35 20  1  1  0  0  0
 35 36  1  0  0  0  0
 36 37  1  0  0  0  0
 37 38  1  0  0  0  0
 38 39  1  0  0  0  0
 39 40  1  0  0  0  0
 40 35  1  0  0  0  0
 37 41  1  1  0  0  0
 39 42  1  1  0  0  0
 40 43  1  6  0  0  0
 38 44  1  6  0  0  0
 41 45  1  0  0  0  0
  8 46  1  1  0  0  0
M  END
>  <cdx:fragmentId>
307

$$$$
