97894.cdx
  Mrv1902 05222410202D          

 31 35  0  0  0  0            999 V2000
    4.4874   -5.4175    0.0000 C   0  0  0  0  0  0  0  0  0  0  0  0
    4.4874   -6.2425    0.0000 O   0  0  0  0  0  0  0  0  0  0  0  0
    5.2019   -6.6550    0.0000 C   0  0  0  0  0  0  0  0  0  0  0  0
    5.9164   -6.2425    0.0000 C   0  0  0  0  0  0  0  0  0  0  0  0
    5.9164   -5.4175    0.0000 C   0  0  0  0  0  0  0  0  0  0  0  0
    5.2019   -5.0050    0.0000 C   0  0  0  0  0  0  0  0  0  0  0  0
    5.2019   -7.4800    0.0000 C   0  0  0  0  0  0  0  0  0  0  0  0
    5.9164   -7.8925    0.0000 C   0  0  0  0  0  0  0  0  0  0  0  0
    6.6308   -7.4800    0.0000 C   0  0  0  0  0  0  0  0  0  0  0  0
    6.6308   -6.6550    0.0000 C   0  0  0  0  0  0  0  0  0  0  0  0
    4.4874   -7.8925    0.0000 C   0  0  0  0  0  0  0  0  0  0  0  0
    4.4874   -8.7175    0.0000 C   0  0  0  0  0  0  0  0  0  0  0  0
    5.2019   -9.1300    0.0000 C   0  0  0  0  0  0  0  0  0  0  0  0
    5.9164   -8.7175    0.0000 O   0  0  0  0  0  0  0  0  0  0  0  0
    7.3453   -7.8925    0.0000 C   0  0  0  0  0  0  0  0  0  0  0  0
    8.0598   -7.4800    0.0000 C   0  0  0  0  0  0  0  0  0  0  0  0
    8.0598   -6.6550    0.0000 C   0  0  0  0  0  0  0  0  0  0  0  0
    7.3453   -6.2425    0.0000 O   0  0  0  0  0  0  0  0  0  0  0  0
    9.4887   -6.6550    0.0000 C   0  0  0  0  0  0  0  0  0  0  0  0
    8.7743   -6.2425    0.0000 C   0  0  0  0  0  0  0  0  0  0  0  0
   10.2032   -6.2425    0.0000 C   0  0  0  0  0  0  0  0  0  0  0  0
   10.2032   -5.4175    0.0000 C   0  0  0  0  0  0  0  0  0  0  0  0
    9.4887   -5.0050    0.0000 C   0  0  0  0  0  0  0  0  0  0  0  0
    8.7743   -5.4175    0.0000 C   0  0  0  0  0  0  0  0  0  0  0  0
    3.6905   -5.6310    0.0000 C   0  0  0  0  0  0  0  0  0  0  0  0
    4.0749   -4.7030    0.0000 C   0  0  0  0  0  0  0  0  0  0  0  0
    4.7894   -9.8445    0.0000 C   0  0  0  0  0  0  0  0  0  0  0  0
    5.6144   -9.8445    0.0000 C   0  0  0  0  0  0  0  0  0  0  0  0
    7.3453   -8.7175    0.0000 O   0  0  0  0  0  0  0  0  0  0  0  0
    8.0598   -5.0050    0.0000 O   0  0  0  0  0  0  0  0  0  0  0  0
   10.9177   -5.0050    0.0000 O   0  0  0  0  0  0  0  0  0  0  0  0
  1  2  1  0  0  0  0
  2  3  1  0  0  0  0
  3  4  2  0  0  0  0
  4  5  1  0  0  0  0
  5  6  2  0  0  0  0
  6  1  1  0  0  0  0
  3  7  1  0  0  0  0
  7  8  2  0  0  0  0
  8  9  1  0  0  0  0
  9 10  2  0  0  0  0
 10  4  1  0  0  0  0
  7 11  1  0  0  0  0
 11 12  1  0  0  0  0
 12 13  1  0  0  0  0
 13 14  1  0  0  0  0
 14  8  1  0  0  0  0
  9 15  1  0  0  0  0
 15 16  1  0  0  0  0
 16 17  2  0  0  0  0
 17 18  1  0  0  0  0
 18 10  1  0  0  0  0
 19 20  2  0  0  0  0
 20 17  1  0  0  0  0
 19 21  1  0  0  0  0
 21 22  2  0  0  0  0
 22 23  1  0  0  0  0
 23 24  2  0  0  0  0
 24 20  1  0  0  0  0
  1 25  1  0  0  0  0
  1 26  1  0  0  0  0
 13 27  1  0  0  0  0
 13 28  1  0  0  0  0
 15 29  2  0  0  0  0
 24 30  1  0  0  0  0
 22 31  1  0  0  0  0
M  END
>  <cdx:fragmentId>
5

$$$$
