97898.cdx
  Mrv1902 05222410252D          

 23 22  0  0  0  0            999 V2000
    2.5069   -9.5287    0.0000 Si  0  0  0  0  0  0  0  0  0  0  0  0
    3.2214   -9.1162    0.0000 O   0  0  0  0  0  0  0  0  0  0  0  0
    3.9358   -9.5287    0.0000 C   0  0  0  0  0  0  0  0  0  0  0  0
    4.6503   -9.1162    0.0000 C   0  0  0  0  0  0  0  0  0  0  0  0
    5.3648   -9.5287    0.0000 C   0  0  0  0  0  0  0  0  0  0  0  0
    6.0793   -9.1162    0.0000 C   0  0  0  0  0  0  0  0  0  0  0  0
    6.7937   -9.5287    0.0000 C   0  0  0  0  0  0  0  0  0  0  0  0
    7.5082   -9.1162    0.0000 C   0  0  0  0  0  0  0  0  0  0  0  0
    8.2227   -9.5287    0.0000 C   0  0  0  0  0  0  0  0  0  0  0  0
    8.9371   -9.1162    0.0000 C   0  0  0  0  0  0  0  0  0  0  0  0
    9.6516   -9.5287    0.0000 C   0  0  0  0  0  0  0  0  0  0  0  0
   10.3661   -9.1162    0.0000 C   0  0  0  0  0  0  0  0  0  0  0  0
   11.0806   -9.5287    0.0000 C   0  0  0  0  0  0  0  0  0  0  0  0
   11.7950   -9.1162    0.0000 C   0  0  0  0  0  0  0  0  0  0  0  0
   12.5095   -9.5287    0.0000 C   0  0  0  0  0  0  0  0  0  0  0  0
   13.2240   -9.1162    0.0000 C   0  0  0  0  0  0  0  0  0  0  0  0
   13.9384   -9.5287    0.0000 C   0  0  0  0  0  0  0  0  0  0  0  0
   14.6529   -9.1162    0.0000 C   0  0  0  0  0  0  0  0  0  0  0  0
    1.7924   -9.9413    0.0000 C   0  0  0  0  0  0  0  0  0  0  0  0
    2.0944   -8.8143    0.0000 C   0  0  0  0  0  0  0  0  0  0  0  0
    2.9194  -10.2432    0.0000 C   0  0  0  0  0  0  0  0  0  0  0  0
   15.3674   -9.5287    0.0000 C   0  0  0  0  0  0  0  0  0  0  0  0
   16.0818   -9.1162    0.0000 C   0  0  0  0  0  0  0  0  0  0  0  0
  1  2  1  0  0  0  0
  2  3  1  0  0  0  0
  3  4  1  0  0  0  0
  4  5  1  0  0  0  0
  5  6  1  0  0  0  0
  6  7  1  0  0  0  0
  7  8  1  0  0  0  0
  8  9  1  0  0  0  0
  9 10  1  0  0  0  0
 10 11  1  0  0  0  0
 11 12  1  0  0  0  0
 12 13  1  0  0  0  0
 13 14  1  0  0  0  0
 14 15  1  0  0  0  0
 15 16  1  0  0  0  0
 16 17  1  0  0  0  0
 17 18  1  0  0  0  0
  1 19  1  0  0  0  0
  1 20  1  0  0  0  0
  1 21  1  0  0  0  0
 18 22  1  0  0  0  0
 22 23  1  0  0  0  0
M  END
>  <cdx:fragmentId>
3

$$$$
