97896.cdx
  Mrv1902 05222410212D          

 32 36  0  0  0  0            999 V2000
    4.0337   -7.9888    0.0000 C   0  0  0  0  0  0  0  0  0  0  0  0
    4.0337   -8.8138    0.0000 C   0  0  0  0  0  0  0  0  0  0  0  0
    4.7481   -9.2263    0.0000 C   0  0  0  0  0  0  0  0  0  0  0  0
    5.4626   -8.8138    0.0000 C   0  0  0  0  0  0  0  0  0  0  0  0
    5.4626   -7.9888    0.0000 C   0  0  0  0  0  0  0  0  0  0  0  0
    4.7481   -7.5762    0.0000 C   0  0  0  0  0  0  0  0  0  0  0  0
    6.1771   -9.2263    0.0000 C   0  0  0  0  0  0  0  0  0  0  0  0
    6.8916   -8.8138    0.0000 C   0  0  0  0  0  0  0  0  0  0  0  0
    6.8916   -7.9888    0.0000 C   0  0  2  0  0  0  0  0  0  0  0  0
    6.1771   -7.5762    0.0000 O   0  0  0  0  0  0  0  0  0  0  0  0
    8.3205   -7.9888    0.0000 C   0  0  0  0  0  0  0  0  0  0  0  0
    7.6060   -7.5762    0.0000 C   0  0  0  0  0  0  0  0  0  0  0  0
    9.0350   -7.5762    0.0000 C   0  0  0  0  0  0  0  0  0  0  0  0
    9.0350   -6.7512    0.0000 C   0  0  0  0  0  0  0  0  0  0  0  0
    8.3205   -6.3388    0.0000 C   0  0  0  0  0  0  0  0  0  0  0  0
    7.6060   -6.7512    0.0000 C   0  0  0  0  0  0  0  0  0  0  0  0
    3.3192   -7.5762    0.0000 O   0  0  0  0  0  0  0  0  0  0  0  0
    4.7481  -10.0512    0.0000 O   0  0  0  0  0  0  0  0  0  0  0  0
    6.1771  -10.0512    0.0000 O   0  0  0  0  0  0  0  0  0  0  0  0
    6.8916   -6.3388    0.0000 O   0  0  0  0  0  0  0  0  0  0  0  0
    7.6060   -8.4013    0.0000 H   0  0  0  0  0  0  0  0  0  0  0  0
    9.7494   -7.9888    0.0000 C   0  0  0  0  0  0  0  0  0  0  0  0
   10.4639   -7.5762    0.0000 C   0  0  0  0  0  0  0  0  0  0  0  0
   10.4639   -6.7512    0.0000 C   0  0  0  0  0  0  0  0  0  0  0  0
    9.7494   -6.3388    0.0000 O   0  0  0  0  0  0  0  0  0  0  0  0
    9.7494   -8.8137    0.0000 C   0  0  0  0  0  0  0  0  0  0  0  0
   10.4639   -9.2262    0.0000 C   0  0  0  0  0  0  0  0  0  0  0  0
   11.1784   -8.8137    0.0000 C   0  0  0  0  0  0  0  0  0  0  0  0
   11.1784   -7.9888    0.0000 C   0  0  0  0  0  0  0  0  0  0  0  0
   10.8764   -6.0368    0.0000 C   0  0  0  0  0  0  0  0  0  0  0  0
   11.2889   -6.7512    0.0000 C   0  0  0  0  0  0  0  0  0  0  0  0
   10.4639  -10.0512    0.0000 C   0  0  0  0  0  0  0  0  0  0  0  0
  1  2  2  0  0  0  0
  2  3  1  0  0  0  0
  3  4  2  0  0  0  0
  4  5  1  0  0  0  0
  5  6  2  0  0  0  0
  6  1  1  0  0  0  0
  4  7  1  0  0  0  0
  7  8  1  0  0  0  0
  8  9  1  0  0  0  0
  9 10  1  0  0  0  0
 10  5  1  0  0  0  0
 11 12  2  0  0  0  0
  9 12  1  6  0  0  0
 11 13  1  0  0  0  0
 13 14  2  0  0  0  0
 14 15  1  0  0  0  0
 15 16  2  0  0  0  0
 16 12  1  0  0  0  0
  1 17  1  0  0  0  0
  3 18  1  0  0  0  0
  7 19  2  0  0  0  0
 16 20  1  0  0  0  0
  9 21  1  1  0  0  0
 13 22  1  0  0  0  0
 22 23  1  0  0  0  0
 23 24  1  0  0  0  0
 24 25  1  0  0  0  0
 25 14  1  0  0  0  0
 22 26  1  0  0  0  0
 26 27  2  0  0  0  0
 27 28  1  0  0  0  0
 28 29  1  0  0  0  0
 29 23  1  0  0  0  0
 24 30  1  0  0  0  0
 24 31  1  0  0  0  0
 27 32  1  0  0  0  0
M  END
>  <cdx:fragmentId>
5

$$$$
