97890.cdx
  Mrv1902 05222410232D          

 35 38  0  0  0  0            999 V2000
    3.8068   -9.2547    0.0000 C   0  0  1  0  0  0  0  0  0  0  0  0
    3.8068   -8.4297    0.0000 C   0  0  0  0  0  0  0  0  0  0  0  0
    4.5213   -8.0172    0.0000 C   0  0  0  0  0  0  0  0  0  0  0  0
    4.5213   -9.6672    0.0000 C   0  0  0  0  0  0  0  0  0  0  0  0
    5.2358   -9.2547    0.0000 C   0  0  0  0  0  0  0  0  0  0  0  0
    5.9502   -9.6672    0.0000 C   0  0  2  0  0  0  0  0  0  0  0  0
    6.6647   -9.2547    0.0000 C   0  0  0  0  0  0  0  0  0  0  0  0
    6.6647   -8.4297    0.0000 C   0  0  1  0  0  0  0  0  0  0  0  0
    7.3792   -8.0172    0.0000 C   0  0  2  0  0  0  0  0  0  0  0  0
    8.1638   -8.2721    0.0000 C   0  0  0  0  0  0  0  0  0  0  0  0
    8.6487   -7.6047    0.0000 C   0  0  0  0  0  0  0  0  0  0  0  0
    8.1638   -6.9372    0.0000 C   0  0  2  0  0  0  0  0  0  0  0  0
    8.4187   -6.1526    0.0000 C   0  0  1  0  0  0  0  0  0  0  0  0
    9.2257   -5.9811    0.0000 C   0  0  0  0  0  0  0  0  0  0  0  0
    9.4807   -5.1965    0.0000 C   0  0  0  0  0  0  0  0  0  0  0  0
    9.9905   -3.6272    0.0000 C   0  0  0  0  0  0  0  0  0  0  0  0
    7.8667   -5.5395    0.0000 C   0  0  0  0  0  0  0  0  0  0  0  0
    7.3792   -7.1922    0.0000 C   0  0  2  0  0  0  0  0  0  0  0  0
    7.3792   -6.3672    0.0000 C   0  0  0  0  0  0  0  0  0  0  0  0
    6.6647   -6.7797    0.0000 C   0  0  0  0  0  0  0  0  0  0  0  0
    5.9502   -7.1922    0.0000 C   0  0  0  0  0  0  0  0  0  0  0  0
    5.9502   -8.0172    0.0000 C   0  0  2  0  0  0  0  0  0  0  0  0
    5.2358   -8.4297    0.0000 C   0  0  1  0  0  0  0  0  0  0  0  0
    5.2358   -7.6047    0.0000 C   0  0  0  0  0  0  0  0  0  0  0  0
    3.0924   -9.6672    0.0000 O   0  0  0  0  0  0  0  0  0  0  0  0
    5.9502   -8.8422    0.0000 H   0  0  0  0  0  0  0  0  0  0  0  0
   11.3495   -4.0688    0.0000 C   0  0  0  0  0  0  0  0  0  0  0  0
   10.5426   -4.2403    0.0000 C   0  0  0  0  0  0  0  0  0  0  0  0
   11.6466   -5.4665    0.0000 C   0  0  0  0  0  0  0  0  0  0  0  0
   10.8397   -5.6380    0.0000 C   0  0  0  0  0  0  0  0  0  0  0  0
   10.2876   -5.0249    0.0000 C   0  0  2  0  0  0  0  0  0  0  0  0
    8.9607   -6.7237    0.0000 H   0  0  0  0  0  0  0  0  0  0  0  0
    5.9502  -10.4922    0.0000 O   0  0  0  0  0  0  0  0  0  0  0  0
    6.6647   -7.6047    0.0000 H   0  0  0  0  0  0  0  0  0  0  0  0
    7.3792   -8.8422    0.0000 H   0  0  0  0  0  0  0  0  0  0  0  0
 28 16  2  0  0  0  0
 28 27  1  0  0  0  0
 31 28  1  0  0  0  0
 30 29  1  0  0  0  0
 31 30  1  0  0  0  0
  1  2  1  0  0  0  0
  2  3  1  0  0  0  0
  1  4  1  0  0  0  0
  4  5  2  0  0  0  0
  5  6  1  0  0  0  0
  6  7  1  0  0  0  0
  7  8  1  0  0  0  0
  8  9  1  0  0  0  0
  9 10  1  0  0  0  0
 10 11  1  0  0  0  0
 11 12  1  0  0  0  0
 12 13  1  0  0  0  0
 13 14  1  0  0  0  0
 14 15  1  0  0  0  0
 31 15  1  6  0  0  0
 13 17  1  6  0  0  0
 12 18  1  0  0  0  0
  9 18  1  0  0  0  0
 18 19  1  1  0  0  0
 18 20  1  0  0  0  0
 20 21  1  0  0  0  0
 21 22  1  0  0  0  0
  8 22  1  0  0  0  0
 22 23  1  0  0  0  0
  3 23  1  0  0  0  0
  5 23  1  0  0  0  0
 23 24  1  1  0  0  0
  1 25  1  1  0  0  0
 22 26  1  6  0  0  0
 12 32  1  6  0  0  0
  6 33  1  6  0  0  0
  8 34  1  1  0  0  0
  9 35  1  6  0  0  0
M  END
>  <cdx:fragmentId>
99

$$$$
