97899.cdx
  Mrv1902 05222410252D          

 22 21  0  0  0  0            999 V2000
    1.6269   -7.4112    0.0000 Si  0  0  0  0  0  0  0  0  0  0  0  0
    2.3414   -6.9988    0.0000 O   0  0  0  0  0  0  0  0  0  0  0  0
    3.0558   -7.4112    0.0000 C   0  0  0  0  0  0  0  0  0  0  0  0
    3.7703   -6.9988    0.0000 C   0  0  0  0  0  0  0  0  0  0  0  0
    4.4848   -7.4112    0.0000 C   0  0  0  0  0  0  0  0  0  0  0  0
    5.1993   -6.9988    0.0000 C   0  0  0  0  0  0  0  0  0  0  0  0
    5.9137   -7.4112    0.0000 C   0  0  0  0  0  0  0  0  0  0  0  0
    6.6282   -6.9988    0.0000 C   0  0  0  0  0  0  0  0  0  0  0  0
    7.3427   -7.4112    0.0000 C   0  0  0  0  0  0  0  0  0  0  0  0
    8.0571   -6.9988    0.0000 C   0  0  0  0  0  0  0  0  0  0  0  0
    8.7716   -7.4112    0.0000 C   0  0  0  0  0  0  0  0  0  0  0  0
    9.4861   -6.9988    0.0000 C   0  0  0  0  0  0  0  0  0  0  0  0
   10.2006   -7.4112    0.0000 C   0  0  0  0  0  0  0  0  0  0  0  0
   10.9150   -6.9988    0.0000 C   0  0  0  0  0  0  0  0  0  0  0  0
   11.6295   -7.4112    0.0000 C   0  0  0  0  0  0  0  0  0  0  0  0
   12.3440   -6.9988    0.0000 C   0  0  0  0  0  0  0  0  0  0  0  0
   13.0584   -7.4112    0.0000 C   0  0  0  0  0  0  0  0  0  0  0  0
   13.7729   -6.9988    0.0000 C   0  0  0  0  0  0  0  0  0  0  0  0
    3.0558   -8.2363    0.0000 O   0  0  0  0  0  0  0  0  0  0  0  0
    0.9124   -7.8237    0.0000 C   0  0  0  0  0  0  0  0  0  0  0  0
    1.2144   -6.6968    0.0000 C   0  0  0  0  0  0  0  0  0  0  0  0
    2.0394   -8.1257    0.0000 C   0  0  0  0  0  0  0  0  0  0  0  0
  1  2  1  0  0  0  0
  2  3  1  0  0  0  0
  3  4  1  0  0  0  0
  4  5  1  0  0  0  0
  5  6  1  0  0  0  0
  6  7  1  0  0  0  0
  7  8  1  0  0  0  0
  8  9  1  0  0  0  0
  9 10  1  0  0  0  0
 10 11  1  0  0  0  0
 11 12  1  0  0  0  0
 12 13  1  0  0  0  0
 13 14  1  0  0  0  0
 14 15  1  0  0  0  0
 15 16  1  0  0  0  0
 16 17  1  0  0  0  0
 17 18  1  0  0  0  0
  3 19  2  0  0  0  0
  1 20  1  0  0  0  0
  1 21  1  0  0  0  0
  1 22  1  0  0  0  0
M  END
>  <cdx:fragmentId>
3

$$$$
