97903.cdx
  Mrv1902 05222410242D          

 41 43  0  0  0  0            999 V2000
    6.4399   -7.0950    0.0000 C   0  0  0  0  0  0  0  0  0  0  0  0
    6.4399   -7.9200    0.0000 C   0  0  0  0  0  0  0  0  0  0  0  0
    7.1544   -8.3325    0.0000 C   0  0  0  0  0  0  0  0  0  0  0  0
    7.8689   -7.9200    0.0000 C   0  0  2  0  0  0  0  0  0  0  0  0
    7.8689   -7.0950    0.0000 C   0  0  0  0  0  0  0  0  0  0  0  0
    7.1544   -6.6825    0.0000 C   0  0  1  0  0  0  0  0  0  0  0  0
    5.6553   -6.8401    0.0000 O   0  0  0  0  0  0  0  0  0  0  0  0
    8.1989   -6.0775    0.0000 C   0  0  1  0  0  0  0  0  0  0  0  0
    8.9133   -7.3150    0.0000 C   0  0  0  0  0  0  0  0  0  0  0  0
    8.9133   -6.4900    0.0000 C   0  0  2  0  0  0  0  0  0  0  0  0
    7.1544   -5.8575    0.0000 C   0  0  0  0  0  0  0  0  0  0  0  0
    7.8689   -5.4450    0.0000 O   0  0  0  0  0  0  0  0  0  0  0  0
    6.4399   -5.4450    0.0000 C   0  0  0  0  0  0  0  0  0  0  0  0
    6.4399   -4.6200    0.0000 C   0  0  0  0  0  0  0  0  0  0  0  0
    5.7255   -5.8575    0.0000 C   0  0  0  0  0  0  0  0  0  0  0  0
    8.5833   -6.6825    0.0000 O   0  0  0  0  0  0  0  0  0  0  0  0
    8.1983   -5.2525    0.0000 C   0  0  0  0  0  0  0  0  0  0  0  0
    8.9128   -4.8400    0.0000 C   0  0  0  0  0  0  0  0  0  0  0  0
    8.9128   -4.0150    0.0000 C   0  0  0  0  0  0  0  0  0  0  0  0
    9.6272   -3.6025    0.0000 C   0  0  0  0  0  0  0  0  0  0  0  0
    9.6272   -2.7775    0.0000 C   0  0  0  0  0  0  0  0  0  0  0  0
   10.3417   -4.0150    0.0000 C   0  0  0  0  0  0  0  0  0  0  0  0
    8.9132   -5.6647    0.0000 C   0  0  0  0  0  0  0  0  0  0  0  0
    9.6278   -6.0775    0.0000 C   0  0  0  0  0  0  0  0  0  0  0  0
   10.3423   -6.4900    0.0000 C   0  0  0  0  0  0  0  0  0  0  0  0
   11.0568   -6.0775    0.0000 C   0  0  0  0  0  0  0  0  0  0  0  0
   11.7712   -6.4900    0.0000 C   0  0  0  0  0  0  0  0  0  0  0  0
   11.0568   -5.2525    0.0000 C   0  0  0  0  0  0  0  0  0  0  0  0
   11.7712   -5.6650    0.0000 O   0  0  0  0  0  0  0  0  0  0  0  0
    5.7255   -8.3325    0.0000 C   0  0  0  0  0  0  0  0  0  0  0  0
    5.0110   -7.9200    0.0000 C   0  0  0  0  0  0  0  0  0  0  0  0
    4.2965   -8.3325    0.0000 C   0  0  0  0  0  0  0  0  0  0  0  0
    3.5820   -7.9200    0.0000 C   0  0  0  0  0  0  0  0  0  0  0  0
    4.2965   -9.1575    0.0000 C   0  0  0  0  0  0  0  0  0  0  0  0
    7.3259   -9.1395    0.0000 O   0  0  0  0  0  0  0  0  0  0  0  0
    8.1464   -9.2257    0.0000 C   0  0  1  0  0  0  0  0  0  0  0  0
    8.4820   -8.4720    0.0000 C   0  0  0  0  0  0  0  0  0  0  0  0
    8.5589   -9.9402    0.0000 C   0  0  0  0  0  0  0  0  0  0  0  0
    8.1464  -10.6546    0.0000 C   0  0  0  0  0  0  0  0  0  0  0  0
    9.3839   -9.9402    0.0000 C   0  0  0  0  0  0  0  0  0  0  0  0
    8.9714  -10.6546    0.0000 O   0  0  0  0  0  0  0  0  0  0  0  0
  1  2  1  0  0  0  0
  2  3  2  0  0  0  0
  3  4  1  0  0  0  0
  4  5  1  0  0  0  0
  5  6  1  0  0  0  0
  6  1  1  0  0  0  0
  1  7  2  0  0  0  0
  6  8  1  0  0  0  0
  4  9  1  0  0  0  0
  8 10  1  0  0  0  0
 10  9  1  0  0  0  0
  6 11  1  1  0  0  0
 11 12  2  0  0  0  0
 11 13  1  0  0  0  0
 13 14  1  0  0  0  0
 13 15  1  0  0  0  0
  5 16  2  0  0  0  0
  8 17  1  0  0  0  0
 17 18  1  0  0  0  0
 18 19  1  0  0  0  0
 19 20  2  0  0  0  0
 20 21  1  0  0  0  0
 20 22  1  0  0  0  0
  8 23  1  1  0  0  0
 10 24  1  1  0  0  0
 24 25  2  0  0  0  0
 25 26  1  0  0  0  0
 26 27  1  0  0  0  0
 26 28  1  0  0  0  0
 26 29  1  0  0  0  0
  2 30  1  0  0  0  0
 30 31  1  0  0  0  0
 31 32  2  0  0  0  0
 32 33  1  0  0  0  0
 32 34  1  0  0  0  0
  3 35  1  0  0  0  0
 35 36  1  0  0  0  0
 36 37  1  0  0  0  0
  4 37  1  1  0  0  0
 36 38  1  1  0  0  0
 38 39  1  0  0  0  0
 38 40  1  0  0  0  0
 38 41  1  0  0  0  0
M  END
>  <cdx:fragmentId>
5

$$$$
