97904.cdx
  Mrv1902 05222410242D          

 35 37  0  0  0  0            999 V2000
    6.4399   -7.0950    0.0000 C   0  0  0  0  0  0  0  0  0  0  0  0
    6.4399   -7.9200    0.0000 C   0  0  0  0  0  0  0  0  0  0  0  0
    7.1544   -8.3325    0.0000 C   0  0  0  0  0  0  0  0  0  0  0  0
    7.8689   -7.9200    0.0000 C   0  0  2  0  0  0  0  0  0  0  0  0
    7.8689   -7.0950    0.0000 C   0  0  0  0  0  0  0  0  0  0  0  0
    7.1544   -6.6825    0.0000 C   0  0  1  0  0  0  0  0  0  0  0  0
    5.6553   -6.8401    0.0000 O   0  0  0  0  0  0  0  0  0  0  0  0
    8.1989   -6.0775    0.0000 C   0  0  0  0  0  0  0  0  0  0  0  0
    8.9133   -7.3150    0.0000 C   0  0  0  0  0  0  0  0  0  0  0  0
    8.9133   -6.4900    0.0000 C   0  0  2  0  0  0  0  0  0  0  0  0
    7.1544   -5.8575    0.0000 C   0  0  0  0  0  0  0  0  0  0  0  0
    7.8689   -5.4450    0.0000 O   0  0  0  0  0  0  0  0  0  0  0  0
    6.4399   -5.4450    0.0000 C   0  0  0  0  0  0  0  0  0  0  0  0
    6.4399   -4.6200    0.0000 C   0  0  0  0  0  0  0  0  0  0  0  0
    5.7255   -5.8575    0.0000 C   0  0  0  0  0  0  0  0  0  0  0  0
    8.5833   -6.6825    0.0000 O   0  0  0  0  0  0  0  0  0  0  0  0
    8.1983   -5.2525    0.0000 C   0  0  0  0  0  0  0  0  0  0  0  0
    8.9132   -5.6647    0.0000 C   0  0  0  0  0  0  0  0  0  0  0  0
    9.6278   -6.0775    0.0000 C   0  0  0  0  0  0  0  0  0  0  0  0
   10.3423   -6.4900    0.0000 C   0  0  0  0  0  0  0  0  0  0  0  0
   11.0568   -6.0775    0.0000 C   0  0  0  0  0  0  0  0  0  0  0  0
   11.7712   -6.4900    0.0000 C   0  0  0  0  0  0  0  0  0  0  0  0
   11.0568   -5.2525    0.0000 C   0  0  0  0  0  0  0  0  0  0  0  0
    8.1464   -9.2257    0.0000 C   0  0  0  0  0  0  0  0  0  0  0  0
    8.4820   -8.4720    0.0000 C   0  0  0  0  0  0  0  0  0  0  0  0
    8.5589   -9.9402    0.0000 C   0  0  0  0  0  0  0  0  0  0  0  0
    8.1464  -10.6546    0.0000 C   0  0  0  0  0  0  0  0  0  0  0  0
    9.3839   -9.9402    0.0000 C   0  0  0  0  0  0  0  0  0  0  0  0
    5.8268   -8.4720    0.0000 C   0  0  0  0  0  0  0  0  0  0  0  0
    6.1624   -9.2257    0.0000 C   0  0  2  0  0  0  0  0  0  0  0  0
    6.9829   -9.1395    0.0000 O   0  0  0  0  0  0  0  0  0  0  0  0
    5.7499   -9.9402    0.0000 C   0  0  0  0  0  0  0  0  0  0  0  0
    6.1624  -10.6546    0.0000 C   0  0  0  0  0  0  0  0  0  0  0  0
    4.9249   -9.9402    0.0000 C   0  0  0  0  0  0  0  0  0  0  0  0
    5.3374  -10.6546    0.0000 O   0  0  0  0  0  0  0  0  0  0  0  0
  1  2  1  0  0  0  0
  2  3  2  0  0  0  0
  3  4  1  0  0  0  0
  4  5  1  0  0  0  0
  5  6  1  0  0  0  0
  6  1  1  0  0  0  0
  1  7  2  0  0  0  0
  6  8  1  0  0  0  0
  4  9  1  0  0  0  0
  8 10  1  0  0  0  0
 10  9  1  0  0  0  0
  6 11  1  1  0  0  0
 11 12  2  0  0  0  0
 11 13  1  0  0  0  0
 13 14  1  0  0  0  0
 13 15  1  0  0  0  0
  5 16  2  0  0  0  0
  8 17  1  0  0  0  0
  8 18  1  0  0  0  0
 10 19  1  1  0  0  0
 19 20  1  0  0  0  0
 20 21  2  0  0  0  0
 21 22  1  0  0  0  0
 21 23  1  0  0  0  0
 24 25  1  0  0  0  0
  4 25  1  1  0  0  0
 24 26  2  0  0  0  0
 26 27  1  0  0  0  0
 26 28  1  0  0  0  0
  2 29  1  0  0  0  0
 29 30  1  0  0  0  0
 30 31  1  0  0  0  0
 31  3  1  0  0  0  0
 30 32  1  6  0  0  0
 32 33  1  0  0  0  0
 32 34  1  0  0  0  0
 32 35  1  0  0  0  0
M  END
>  <cdx:fragmentId>
5

$$$$
