97906.cdx
  Mrv1902 05222410262D          

 35 37  0  0  0  0            999 V2000
    6.4399   -7.0950    0.0000 C   0  0  0  0  0  0  0  0  0  0  0  0
    6.4399   -7.9200    0.0000 C   0  0  0  0  0  0  0  0  0  0  0  0
    7.1544   -8.3325    0.0000 C   0  0  0  0  0  0  0  0  0  0  0  0
    7.8689   -7.9200    0.0000 C   0  0  2  0  0  0  0  0  0  0  0  0
    7.8689   -7.0950    0.0000 C   0  0  0  0  0  0  0  0  0  0  0  0
    7.1544   -6.6825    0.0000 C   0  0  1  0  0  0  0  0  0  0  0  0
    8.1989   -6.0775    0.0000 C   0  0  0  0  0  0  0  0  0  0  0  0
    8.9133   -7.3150    0.0000 C   0  0  0  0  0  0  0  0  0  0  0  0
    8.9133   -6.4900    0.0000 C   0  0  2  0  0  0  0  0  0  0  0  0
    7.1544   -5.8575    0.0000 C   0  0  0  0  0  0  0  0  0  0  0  0
    7.8689   -5.4450    0.0000 O   0  0  0  0  0  0  0  0  0  0  0  0
    6.4399   -5.4450    0.0000 C   0  0  0  0  0  0  0  0  0  0  0  0
    6.4399   -4.6200    0.0000 C   0  0  0  0  0  0  0  0  0  0  0  0
    5.7255   -5.8575    0.0000 C   0  0  0  0  0  0  0  0  0  0  0  0
    8.5833   -6.6825    0.0000 O   0  0  0  0  0  0  0  0  0  0  0  0
    8.1983   -5.2525    0.0000 C   0  0  0  0  0  0  0  0  0  0  0  0
    8.9132   -5.6647    0.0000 C   0  0  0  0  0  0  0  0  0  0  0  0
    9.6278   -6.0775    0.0000 C   0  0  0  0  0  0  0  0  0  0  0  0
   10.3423   -6.4900    0.0000 C   0  0  0  0  0  0  0  0  0  0  0  0
   11.0568   -6.0775    0.0000 C   0  0  0  0  0  0  0  0  0  0  0  0
   11.7712   -6.4900    0.0000 C   0  0  0  0  0  0  0  0  0  0  0  0
   11.0568   -5.2525    0.0000 C   0  0  0  0  0  0  0  0  0  0  0  0
    8.1464   -9.2257    0.0000 C   0  0  0  0  0  0  0  0  0  0  0  0
    8.4820   -8.4720    0.0000 C   0  0  0  0  0  0  0  0  0  0  0  0
    8.5589   -9.9402    0.0000 C   0  0  0  0  0  0  0  0  0  0  0  0
    8.1464  -10.6546    0.0000 C   0  0  0  0  0  0  0  0  0  0  0  0
    9.3839   -9.9402    0.0000 C   0  0  0  0  0  0  0  0  0  0  0  0
    5.6553   -6.8401    0.0000 O   0  0  0  0  0  0  0  0  0  0  0  0
    5.1704   -7.5075    0.0000 C   0  0  2  0  0  0  0  0  0  0  0  0
    5.6553   -8.1749    0.0000 C   0  0  0  0  0  0  0  0  0  0  0  0
    7.1544   -9.1575    0.0000 O   0  0  0  0  0  0  0  0  0  0  0  0
    4.3454   -7.5075    0.0000 C   0  0  0  0  0  0  0  0  0  0  0  0
    3.9329   -8.2220    0.0000 C   0  0  0  0  0  0  0  0  0  0  0  0
    3.9329   -6.7930    0.0000 C   0  0  0  0  0  0  0  0  0  0  0  0
    3.5204   -7.5075    0.0000 O   0  0  0  0  0  0  0  0  0  0  0  0
  1  2  2  0  0  0  0
  2  3  1  0  0  0  0
  3  4  1  0  0  0  0
  4  5  1  0  0  0  0
  5  6  1  0  0  0  0
  6  1  1  0  0  0  0
  6  7  1  0  0  0  0
  4  8  1  0  0  0  0
  7  9  1  0  0  0  0
  9  8  1  0  0  0  0
  6 10  1  1  0  0  0
 10 11  2  0  0  0  0
 10 12  1  0  0  0  0
 12 13  1  0  0  0  0
 12 14  1  0  0  0  0
  5 15  2  0  0  0  0
  7 16  1  0  0  0  0
  7 17  1  0  0  0  0
  9 18  1  1  0  0  0
 18 19  1  0  0  0  0
 19 20  2  0  0  0  0
 20 21  1  0  0  0  0
 20 22  1  0  0  0  0
 23 24  1  0  0  0  0
  4 24  1  1  0  0  0
 23 25  2  0  0  0  0
 25 26  1  0  0  0  0
 25 27  1  0  0  0  0
  1 28  1  0  0  0  0
 28 29  1  0  0  0  0
 29 30  1  0  0  0  0
 30  2  1  0  0  0  0
  3 31  2  0  0  0  0
 29 32  1  6  0  0  0
 32 33  1  0  0  0  0
 32 34  1  0  0  0  0
 32 35  1  0  0  0  0
M  END
>  <cdx:fragmentId>
5

$$$$
