97908.cdx
  Mrv1902 05222410212D          

 26 27  0  0  0  0            999 V2000
    4.3468   -4.5375    0.0000 O   0  0  0  0  0  0  0  0  0  0  0  0
    3.6323   -5.7750    0.0000 O   0  0  0  0  0  0  0  0  0  0  0  0
    4.3468   -5.3625    0.0000 C   0  0  0  0  0  0  0  0  0  0  0  0
    4.3468   -7.0125    0.0000 O   0  0  0  0  0  0  0  0  0  0  0  0
    5.7757   -7.8375    0.0000 O   0  0  0  0  0  0  0  0  0  0  0  0
    7.2046   -7.0125    0.0000 O   0  0  0  0  0  0  0  0  0  0  0  0
    5.7757   -5.3625    0.0000 O   0  0  0  0  0  0  0  0  0  0  0  0
    5.0612   -5.7750    0.0000 C   0  0  1  0  0  0  0  0  0  0  0  0
    5.0612   -6.6000    0.0000 C   0  0  2  0  0  0  0  0  0  0  0  0
    5.7757   -7.0125    0.0000 C   0  0  1  0  0  0  0  0  0  0  0  0
    6.4902   -6.6000    0.0000 C   0  0  2  0  0  0  0  0  0  0  0  0
    6.4902   -5.7750    0.0000 C   0  0  2  0  0  0  0  0  0  0  0  0
    7.2046   -5.3625    0.0000 O   0  0  0  0  0  0  0  0  0  0  0  0
    8.6336   -9.4875    0.0000 O   0  0  0  0  0  0  0  0  0  0  0  0
   10.0625   -9.4875    0.0000 O   0  0  0  0  0  0  0  0  0  0  0  0
    9.3481   -9.0750    0.0000 C   0  0  0  0  0  0  0  0  0  0  0  0
    9.3481   -8.2500    0.0000 C   0  0  0  0  0  0  0  0  0  0  0  0
    8.6336   -7.8375    0.0000 C   0  0  0  0  0  0  0  0  0  0  0  0
    9.3481   -4.1250    0.0000 C   0  0  0  0  0  0  0  0  0  0  0  0
    8.6336   -4.5375    0.0000 O   0  0  0  0  0  0  0  0  0  0  0  0
    8.6336   -5.3625    0.0000 C   0  0  0  0  0  0  0  0  0  0  0  0
    7.9191   -5.7750    0.0000 C   0  0  0  0  0  0  0  0  0  0  0  0
    7.9191   -6.6000    0.0000 C   0  0  0  0  0  0  0  0  0  0  0  0
    8.6336   -7.0125    0.0000 C   0  0  0  0  0  0  0  0  0  0  0  0
    9.3481   -6.6000    0.0000 C   0  0  0  0  0  0  0  0  0  0  0  0
    9.3481   -5.7750    0.0000 C   0  0  0  0  0  0  0  0  0  0  0  0
  3  1  2  0  0  0  0
  3  2  1  0  0  0  0
  8  3  1  1  0  0  0
  9  4  1  6  0  0  0
 10  5  1  1  0  0  0
 11  6  1  6  0  0  0
  7 12  1  0  0  0  0
  8  7  1  0  0  0  0
  9  8  1  0  0  0  0
 10  9  1  0  0  0  0
 11 10  1  0  0  0  0
 12 11  1  0  0  0  0
 12 13  1  1  0  0  0
 22 13  1  0  0  0  0
 16 14  1  0  0  0  0
 16 15  2  0  0  0  0
 17 16  1  0  0  0  0
 18 17  1  0  0  0  0
 24 18  1  0  0  0  0
 20 19  1  0  0  0  0
 21 20  1  0  0  0  0
 21 26  1  0  0  0  0
 22 21  2  0  0  0  0
 23 22  1  0  0  0  0
 24 23  2  0  0  0  0
 25 24  1  0  0  0  0
 26 25  2  0  0  0  0
M  END
>  <cdx:fragmentId>
5

$$$$
