97901.cdx
  Mrv1902 05222410242D          

 41 43  0  0  0  0            999 V2000
    6.4399   -7.0950    0.0000 C   0  0  0  0  0  0  0  0  0  0  0  0
    6.4399   -7.9200    0.0000 C   0  0  0  0  0  0  0  0  0  0  0  0
    7.1544   -8.3325    0.0000 C   0  0  0  0  0  0  0  0  0  0  0  0
    7.8689   -7.9200    0.0000 C   0  0  2  0  0  0  0  0  0  0  0  0
    7.8689   -7.0950    0.0000 C   0  0  0  0  0  0  0  0  0  0  0  0
    7.1544   -6.6825    0.0000 C   0  0  1  0  0  0  0  0  0  0  0  0
    5.6553   -6.8401    0.0000 O   0  0  0  0  0  0  0  0  0  0  0  0
    5.1704   -7.5075    0.0000 C   0  0  2  0  0  0  0  0  0  0  0  0
    5.6553   -8.1749    0.0000 C   0  0  0  0  0  0  0  0  0  0  0  0
    8.1989   -6.0775    0.0000 C   0  0  1  0  0  0  0  0  0  0  0  0
    8.9133   -7.3150    0.0000 C   0  0  0  0  0  0  0  0  0  0  0  0
    8.9133   -6.4900    0.0000 C   0  0  2  0  0  0  0  0  0  0  0  0
    7.1544   -5.8575    0.0000 C   0  0  0  0  0  0  0  0  0  0  0  0
    7.8689   -5.4450    0.0000 O   0  0  0  0  0  0  0  0  0  0  0  0
    6.4399   -5.4450    0.0000 C   0  0  0  0  0  0  0  0  0  0  0  0
    6.4399   -4.6200    0.0000 C   0  0  0  0  0  0  0  0  0  0  0  0
    5.7255   -5.8575    0.0000 C   0  0  0  0  0  0  0  0  0  0  0  0
    4.3454   -7.5075    0.0000 C   0  0  0  0  0  0  0  0  0  0  0  0
    3.9329   -6.7930    0.0000 C   0  0  0  0  0  0  0  0  0  0  0  0
    3.9329   -8.2220    0.0000 C   0  0  0  0  0  0  0  0  0  0  0  0
    3.5204   -7.5075    0.0000 O   0  0  0  0  0  0  0  0  0  0  0  0
    7.1544   -9.1575    0.0000 O   0  0  0  0  0  0  0  0  0  0  0  0
    8.2814   -8.6345    0.0000 C   0  0  0  0  0  0  0  0  0  0  0  0
    7.8689   -9.3489    0.0000 C   0  0  0  0  0  0  0  0  0  0  0  0
    8.2814  -10.0634    0.0000 C   0  0  0  0  0  0  0  0  0  0  0  0
    7.8689  -10.7779    0.0000 C   0  0  0  0  0  0  0  0  0  0  0  0
    9.1064  -10.0634    0.0000 C   0  0  0  0  0  0  0  0  0  0  0  0
    8.5833   -6.6825    0.0000 O   0  0  0  0  0  0  0  0  0  0  0  0
    8.1983   -5.2525    0.0000 C   0  0  0  0  0  0  0  0  0  0  0  0
    8.9128   -4.8400    0.0000 C   0  0  0  0  0  0  0  0  0  0  0  0
    8.9128   -4.0150    0.0000 C   0  0  0  0  0  0  0  0  0  0  0  0
    9.6272   -3.6025    0.0000 C   0  0  0  0  0  0  0  0  0  0  0  0
    9.6272   -2.7775    0.0000 C   0  0  0  0  0  0  0  0  0  0  0  0
   10.3417   -4.0150    0.0000 C   0  0  0  0  0  0  0  0  0  0  0  0
    8.9132   -5.6647    0.0000 C   0  0  0  0  0  0  0  0  0  0  0  0
    9.6278   -6.0775    0.0000 C   0  0  0  0  0  0  0  0  0  0  0  0
   10.3423   -6.4900    0.0000 C   0  0  0  0  0  0  0  0  0  0  0  0
   11.0568   -6.0775    0.0000 C   0  0  0  0  0  0  0  0  0  0  0  0
   11.7712   -6.4900    0.0000 C   0  0  0  0  0  0  0  0  0  0  0  0
   11.0568   -5.2525    0.0000 C   0  0  0  0  0  0  0  0  0  0  0  0
   10.3417   -3.1900    0.0000 O   0  0  0  0  0  0  0  0  0  0  0  0
  1  2  2  0  0  0  0
  2  3  1  0  0  0  0
  3  4  1  0  0  0  0
  4  5  1  0  0  0  0
  5  6  1  0  0  0  0
  6  1  1  0  0  0  0
  1  7  1  0  0  0  0
  7  8  1  0  0  0  0
  8  9  1  0  0  0  0
  9  2  1  0  0  0  0
  6 10  1  0  0  0  0
  4 11  1  0  0  0  0
 10 12  1  0  0  0  0
 12 11  1  0  0  0  0
  6 13  1  1  0  0  0
 13 14  2  0  0  0  0
 13 15  1  0  0  0  0
 15 16  1  0  0  0  0
 15 17  1  0  0  0  0
  8 18  1  6  0  0  0
 18 19  1  0  0  0  0
 18 20  1  0  0  0  0
 18 21  1  0  0  0  0
  3 22  2  0  0  0  0
  4 23  1  1  0  0  0
 23 24  1  0  0  0  0
 24 25  2  0  0  0  0
 25 26  1  0  0  0  0
 25 27  1  0  0  0  0
  5 28  2  0  0  0  0
 10 29  1  0  0  0  0
 29 30  1  0  0  0  0
 30 31  2  0  0  0  0
 31 32  1  0  0  0  0
 32 33  1  0  0  0  0
 32 34  1  0  0  0  0
 10 35  1  1  0  0  0
 12 36  1  1  0  0  0
 36 37  1  0  0  0  0
 37 38  2  0  0  0  0
 38 39  1  0  0  0  0
 38 40  1  0  0  0  0
 32 41  1  0  0  0  0
M  END
>  <cdx:fragmentId>
5

$$$$
