97907.cdx
  Mrv1902 05222410252D          

 31 33  0  0  0  0            999 V2000
    6.3530   -7.2325    0.0000 C   0  0  2  0  0  0  0  0  0  0  0  0
    6.3530   -8.0575    0.0000 C   0  0  2  0  0  0  0  0  0  0  0  0
    7.0675   -8.4700    0.0000 C   0  0  1  0  0  0  0  0  0  0  0  0
    7.7820   -8.0575    0.0000 C   0  0  2  0  0  0  0  0  0  0  0  0
    7.7820   -7.2325    0.0000 C   0  0  2  0  0  0  0  0  0  0  0  0
    7.0675   -6.8200    0.0000 O   0  0  0  0  0  0  0  0  0  0  0  0
    8.4964   -6.8200    0.0000 O   0  0  0  0  0  0  0  0  0  0  0  0
    5.6386   -6.8200    0.0000 C   0  0  0  0  0  0  0  0  0  0  0  0
    7.0675   -9.2950    0.0000 O   0  0  0  0  0  0  0  0  0  0  0  0
    8.4964   -8.4700    0.0000 O   0  0  0  0  0  0  0  0  0  0  0  0
    5.6386   -8.4700    0.0000 O   0  0  0  0  0  0  0  0  0  0  0  0
    4.9241   -7.2325    0.0000 O   0  0  0  0  0  0  0  0  0  0  0  0
    9.2109   -7.2325    0.0000 C   0  0  2  0  0  0  0  0  0  0  0  0
    9.2971   -8.0530    0.0000 O   0  0  0  0  0  0  0  0  0  0  0  0
   10.1041   -8.2245    0.0000 C   0  0  1  0  0  0  0  0  0  0  0  0
   10.5166   -7.5100    0.0000 C   0  0  2  0  0  0  0  0  0  0  0  0
    9.9646   -6.8969    0.0000 C   0  0  2  0  0  0  0  0  0  0  0  0
   10.4397   -8.9782    0.0000 C   0  0  0  0  0  0  0  0  0  0  0  0
   11.2602   -9.0644    0.0000 O   0  0  0  0  0  0  0  0  0  0  0  0
   10.1361   -6.0900    0.0000 O   0  0  0  0  0  0  0  0  0  0  0  0
   11.3371   -7.4238    0.0000 O   0  0  0  0  0  0  0  0  0  0  0  0
    4.2096   -6.8200    0.0000 C   0  0  0  0  0  0  0  0  0  0  0  0
    3.4951   -7.2325    0.0000 C   0  0  0  0  0  0  0  0  0  0  0  0
    2.7807   -6.8200    0.0000 C   0  0  0  0  0  0  0  0  0  0  0  0
    2.0662   -7.2325    0.0000 C   0  0  0  0  0  0  0  0  0  0  0  0
    2.0662   -8.0575    0.0000 C   0  0  0  0  0  0  0  0  0  0  0  0
    2.7807   -8.4700    0.0000 C   0  0  0  0  0  0  0  0  0  0  0  0
    3.4951   -8.0575    0.0000 C   0  0  0  0  0  0  0  0  0  0  0  0
    1.3517   -8.4700    0.0000 O   0  0  0  0  0  0  0  0  0  0  0  0
    9.2541   -6.4086    0.0000 C   0  0  0  0  0  0  0  0  0  0  0  0
    8.5622   -5.9593    0.0000 O   0  0  0  0  0  0  0  0  0  0  0  0
  1  2  1  0  0  0  0
  2  3  1  0  0  0  0
  3  4  1  0  0  0  0
  4  5  1  0  0  0  0
  5  6  1  0  0  0  0
  6  1  1  0  0  0  0
  5  7  1  6  0  0  0
  1  8  1  1  0  0  0
  3  9  1  1  0  0  0
  4 10  1  6  0  0  0
  2 11  1  6  0  0  0
  8 12  1  0  0  0  0
 13  7  1  1  0  0  0
 13 14  1  0  0  0  0
 14 15  1  0  0  0  0
 15 16  1  0  0  0  0
 16 17  1  0  0  0  0
 17 13  1  0  0  0  0
 15 18  1  1  0  0  0
 18 19  1  0  0  0  0
 17 20  1  1  0  0  0
 16 21  1  6  0  0  0
 12 22  1  0  0  0  0
 22 23  1  0  0  0  0
 23 24  2  0  0  0  0
 24 25  1  0  0  0  0
 25 26  2  0  0  0  0
 26 27  1  0  0  0  0
 27 28  2  0  0  0  0
 28 23  1  0  0  0  0
 26 29  1  0  0  0  0
 13 30  1  0  0  0  0
 30 31  1  0  0  0  0
M  END
>  <cdx:fragmentId>
170

$$$$
