97915.cdx
  Mrv1902 05222410242D          

 25 28  0  0  0  0            999 V2000
    7.5595   -7.5350    0.0000 H   0  0  0  0  0  0  0  0  0  0  0  0
    6.8450   -8.7725    0.0000 H   0  0  0  0  0  0  0  0  0  0  0  0
    4.7016   -6.7100    0.0000 C   0  0  0  0  0  0  0  0  0  0  0  0
    5.4161   -6.2975    0.0000 H   0  0  0  0  0  0  0  0  0  0  0  0
    7.7275   -4.5655    0.0000 C   0  0  0  0  0  0  0  0  0  0  0  0
    6.6275   -6.4350    0.0000 O   0  0  0  0  0  0  0  0  0  0  0  0
    6.6550   -5.7475    0.0000 O   0  0  0  0  0  0  0  0  0  0  0  0
    5.9125   -5.9675    0.0000 C   0  0  0  0  0  0  0  0  0  0  0  0
    6.3525   -5.3350    0.0000 C   0  0  0  0  0  0  0  0  0  0  0  0
    7.2600   -5.3075    0.0000 C   0  0  1  0  0  0  0  0  0  0  0  0
    7.7275   -5.9400    0.0000 O   0  0  0  0  0  0  0  0  0  0  0  0
    9.7029   -9.5975    0.0000 C   0  0  0  0  0  0  0  0  0  0  0  0
    8.9884   -9.1850    0.0000 C   0  0  0  0  0  0  0  0  0  0  0  0
    8.9884   -8.3600    0.0000 O   0  0  0  0  0  0  0  0  0  0  0  0
    7.5595   -9.1850    0.0000 C   0  0  0  0  0  0  0  0  0  0  0  0
    6.1306   -6.7100    0.0000 C   0  0  1  0  0  0  0  0  0  0  0  0
    5.4161   -7.1225    0.0000 C   0  0  1  0  0  0  0  0  0  0  0  0
    5.4161   -7.9475    0.0000 C   0  0  0  0  0  0  0  0  0  0  0  0
    6.1306   -8.3600    0.0000 C   0  0  0  0  0  0  0  0  0  0  0  0
    7.5595   -6.7100    0.0000 C   0  0  2  0  0  0  0  0  0  0  0  0
    6.8450   -7.1225    0.0000 C   0  0  1  0  0  0  0  0  0  0  0  0
    6.8450   -7.9475    0.0000 C   0  0  2  0  0  0  0  0  0  0  0  0
    7.5595   -8.3600    0.0000 C   0  0  2  0  0  0  0  0  0  0  0  0
    8.2740   -7.9475    0.0000 C   0  0  2  0  0  0  0  0  0  0  0  0
    8.2740   -7.1225    0.0000 O   0  0  0  0  0  0  0  0  0  0  0  0
 20  1  1  6  0  0  0
 22  2  1  1  0  0  0
 17  3  1  1  0  0  0
 16  4  1  1  0  0  0
 10  5  1  1  0  0  0
  7  6  1  0  0  0  0
 21  6  1  1  0  0  0
 10  7  1  0  0  0  0
 16  8  1  0  0  0  0
  9  8  1  0  0  0  0
 10  9  1  0  0  0  0
 11 10  1  0  0  0  0
 20 11  1  0  0  0  0
 13 12  1  0  0  0  0
 14 13  1  0  0  0  0
 24 14  1  6  0  0  0
 23 15  1  6  0  0  0
 16 21  1  0  0  0  0
 17 16  1  0  0  0  0
 18 17  1  0  0  0  0
 19 18  1  0  0  0  0
 22 19  1  0  0  0  0
 20 25  1  0  0  0  0
 21 20  1  0  0  0  0
 22 21  1  0  0  0  0
 23 22  1  0  0  0  0
 24 23  1  0  0  0  0
 25 24  1  0  0  0  0
M  END
>  <cdx:fragmentId>
5

$$$$
