97919.cdx
  Mrv1902 05222410222D          

 29 31  0  0  0  0            999 V2000
    5.0374   -8.8688    0.0000 C   0  0  2  0  0  0  0  0  0  0  0  0
    5.0374   -9.6937    0.0000 C   0  0  2  0  0  0  0  0  0  0  0  0
    5.7519  -10.1063    0.0000 C   0  0  1  0  0  0  0  0  0  0  0  0
    6.4664   -9.6937    0.0000 C   0  0  2  0  0  0  0  0  0  0  0  0
    6.4664   -8.8688    0.0000 C   0  0  1  0  0  0  0  0  0  0  0  0
    5.7519   -8.4563    0.0000 O   0  0  0  0  0  0  0  0  0  0  0  0
    7.1808  -10.1063    0.0000 O   0  0  0  0  0  0  0  0  0  0  0  0
    7.8953   -9.6937    0.0000 C   0  0  0  0  0  0  0  0  0  0  0  0
    7.8953   -8.8688    0.0000 C   0  0  0  0  0  0  0  0  0  0  0  0
    7.1808   -8.4563    0.0000 O   0  0  0  0  0  0  0  0  0  0  0  0
    8.6098  -10.1063    0.0000 C   0  0  0  0  0  0  0  0  0  0  0  0
    9.3243   -9.6937    0.0000 C   0  0  0  0  0  0  0  0  0  0  0  0
    9.3243   -8.8688    0.0000 C   0  0  0  0  0  0  0  0  0  0  0  0
    8.6098   -8.4563    0.0000 C   0  0  0  0  0  0  0  0  0  0  0  0
   10.0387   -8.4563    0.0000 C   0  0  0  0  0  0  0  0  0  0  0  0
   10.0389   -7.6313    0.0000 C   0  0  0  0  0  0  0  0  0  0  0  0
    9.3245   -7.2186    0.0000 C   0  0  0  0  0  0  0  0  0  0  0  0
    9.3246   -6.3936    0.0000 C   0  0  0  0  0  0  0  0  0  0  0  0
    8.6102   -5.9810    0.0000 C   0  0  0  0  0  0  0  0  0  0  0  0
    7.8957   -6.3934    0.0000 C   0  0  0  0  0  0  0  0  0  0  0  0
    7.8955   -7.2184    0.0000 C   0  0  0  0  0  0  0  0  0  0  0  0
    8.6099   -7.6310    0.0000 C   0  0  0  0  0  0  0  0  0  0  0  0
   10.0392   -5.9813    0.0000 O   0  0  0  0  0  0  0  0  0  0  0  0
    7.1813   -5.9807    0.0000 O   0  0  0  0  0  0  0  0  0  0  0  0
    8.6098  -10.9313    0.0000 O   0  0  0  0  0  0  0  0  0  0  0  0
    4.3230   -8.4563    0.0000 C   0  0  0  0  0  0  0  0  0  0  0  0
    5.7519  -10.9313    0.0000 O   0  0  0  0  0  0  0  0  0  0  0  0
    4.3230  -10.1063    0.0000 O   0  0  0  0  0  0  0  0  0  0  0  0
    3.6085   -8.8688    0.0000 O   0  0  0  0  0  0  0  0  0  0  0  0
  1  2  1  0  0  0  0
  2  3  1  0  0  0  0
  3  4  1  0  0  0  0
  4  5  1  0  0  0  0
  5  6  1  0  0  0  0
  6  1  1  0  0  0  0
  4  7  1  6  0  0  0
  8  9  2  0  0  0  0
  9 10  1  0  0  0  0
  5 10  1  1  0  0  0
  8 11  1  0  0  0  0
 11 12  2  0  0  0  0
 12 13  1  0  0  0  0
 13 14  2  0  0  0  0
 14  9  1  0  0  0  0
 13 15  1  0  0  0  0
 15 16  2  0  0  0  0
 16 17  1  0  0  0  0
 17 18  2  0  0  0  0
 18 19  1  0  0  0  0
 19 20  2  0  0  0  0
 20 21  1  0  0  0  0
 21 22  2  0  0  0  0
 22 17  1  0  0  0  0
 18 23  1  0  0  0  0
 20 24  1  0  0  0  0
 11 25  1  0  0  0  0
  1 26  1  1  0  0  0
  3 27  1  1  0  0  0
  2 28  1  6  0  0  0
 26 29  1  0  0  0  0
M  END
>  <cdx:fragmentId>
5

$$$$
