97917.cdx
  Mrv1902 05222410242D          

 33 36  0  0  0  0            999 V2000
    8.9012   -8.6396    0.0000 C   0  0  0  0  0  0  0  0  0  0  0  0
    8.9012   -7.8146    0.0000 C   0  0  0  0  0  0  0  0  0  0  0  0
    9.6156   -7.4021    0.0000 C   0  0  0  0  0  0  0  0  0  0  0  0
   10.3301   -7.8146    0.0000 C   0  0  0  0  0  0  0  0  0  0  0  0
   10.3301   -8.6396    0.0000 C   0  0  0  0  0  0  0  0  0  0  0  0
    9.6156   -9.0521    0.0000 C   0  0  0  0  0  0  0  0  0  0  0  0
    8.1867   -7.4021    0.0000 O   0  0  0  0  0  0  0  0  0  0  0  0
    7.4722   -7.8146    0.0000 C   0  0  1  0  0  0  0  0  0  0  0  0
    7.4722   -8.6396    0.0000 C   0  0  1  0  0  0  0  0  0  0  0  0
    6.7578   -9.0521    0.0000 C   0  0  2  0  0  0  0  0  0  0  0  0
    6.0433   -8.6396    0.0000 C   0  0  1  0  0  0  0  0  0  0  0  0
    6.0433   -7.8146    0.0000 C   0  0  2  0  0  0  0  0  0  0  0  0
    6.7578   -7.4021    0.0000 O   0  0  0  0  0  0  0  0  0  0  0  0
    6.7578   -9.8771    0.0000 O   0  0  0  0  0  0  0  0  0  0  0  0
    8.1867   -9.0521    0.0000 O   0  0  0  0  0  0  0  0  0  0  0  0
    5.3288   -9.0521    0.0000 O   0  0  0  0  0  0  0  0  0  0  0  0
    4.6144   -7.8146    0.0000 O   0  0  0  0  0  0  0  0  0  0  0  0
    3.9027   -7.3973    0.0000 C   0  0  1  0  0  0  0  0  0  0  0  0
    3.1468   -7.7278    0.0000 C   0  0  1  0  0  0  0  0  0  0  0  0
    2.5988   -7.1111    0.0000 C   0  0  1  0  0  0  0  0  0  0  0  0
    3.0161   -6.3994    0.0000 C   0  0  0  0  0  0  0  0  0  0  0  0
    3.8219   -6.5763    0.0000 O   0  0  0  0  0  0  0  0  0  0  0  0
    2.9698   -8.5336    0.0000 O   0  0  0  0  0  0  0  0  0  0  0  0
    1.7778   -7.1918    0.0000 O   0  0  0  0  0  0  0  0  0  0  0  0
    2.0194   -6.5238    0.0000 C   0  0  0  0  0  0  0  0  0  0  0  0
    1.2225   -6.7373    0.0000 O   0  0  0  0  0  0  0  0  0  0  0  0
    5.3288   -7.4021    0.0000 C   0  0  0  0  0  0  0  0  0  0  0  0
    9.6156   -9.8771    0.0000 O   0  0  0  0  0  0  0  0  0  0  0  0
   11.0446   -9.0521    0.0000 C   0  0  0  0  0  0  0  0  0  0  0  0
   11.7591   -8.6396    0.0000 C   0  0  0  0  0  0  0  0  0  0  0  0
   11.7591   -7.8146    0.0000 C   0  0  0  0  0  0  0  0  0  0  0  0
   11.0446   -7.4021    0.0000 O   0  0  0  0  0  0  0  0  0  0  0  0
   12.4735   -7.4021    0.0000 O   0  0  0  0  0  0  0  0  0  0  0  0
  1  2  2  0  0  0  0
  2  3  1  0  0  0  0
  3  4  2  0  0  0  0
  4  5  1  0  0  0  0
  5  6  2  0  0  0  0
  6  1  1  0  0  0  0
  2  7  1  0  0  0  0
  8  7  1  1  0  0  0
  8  9  1  0  0  0  0
  9 10  1  0  0  0  0
 10 11  1  0  0  0  0
 11 12  1  0  0  0  0
 12 13  1  0  0  0  0
 13  8  1  0  0  0  0
 10 14  1  1  0  0  0
  9 15  1  6  0  0  0
 11 16  1  6  0  0  0
 12 27  1  1  0  0  0
 18 17  1  1  0  0  0
 18 19  1  0  0  0  0
 19 20  1  0  0  0  0
 20 21  1  0  0  0  0
 21 22  1  0  0  0  0
 22 18  1  0  0  0  0
 19 23  1  6  0  0  0
 20 24  1  6  0  0  0
 20 25  1  0  0  0  0
 27 17  1  0  0  0  0
 25 26  1  0  0  0  0
  6 28  1  0  0  0  0
  5 29  1  0  0  0  0
 29 30  2  0  0  0  0
 30 31  1  0  0  0  0
 31 32  1  0  0  0  0
 32  4  1  0  0  0  0
 31 33  2  0  0  0  0
M  END
>  <cdx:fragmentId>
5

$$$$
