97911.cdx
  Mrv1902 05222410252D          

 22 23  0  0  0  0            999 V2000
   10.0535   -9.7478    0.0000 C   0  0  0  0  0  0  0  0  0  0  0  0
    9.3391   -9.3353    0.0000 C   0  0  0  0  0  0  0  0  0  0  0  0
    9.3391   -8.5103    0.0000 C   0  0  0  0  0  0  0  0  0  0  0  0
    8.6246   -8.0978    0.0000 C   0  0  0  0  0  0  0  0  0  0  0  0
    7.9101   -8.5103    0.0000 C   0  0  0  0  0  0  0  0  0  0  0  0
    7.9101   -9.3353    0.0000 C   0  0  0  0  0  0  0  0  0  0  0  0
    8.6246   -9.7478    0.0000 C   0  0  0  0  0  0  0  0  0  0  0  0
   10.0535  -10.5728    0.0000 O   0  0  0  0  0  0  0  0  0  0  0  0
   10.7680   -9.3353    0.0000 O   0  0  0  0  0  0  0  0  0  0  0  0
    7.1956   -8.0978    0.0000 O   0  0  0  0  0  0  0  0  0  0  0  0
    5.7667   -8.0978    0.0000 O   0  0  0  0  0  0  0  0  0  0  0  0
    6.4812   -8.5103    0.0000 C   0  0  2  0  0  0  0  0  0  0  0  0
    6.4812   -9.3353    0.0000 C   0  0  1  0  0  0  0  0  0  0  0  0
    5.7667   -9.7478    0.0000 C   0  0  1  0  0  0  0  0  0  0  0  0
    5.0522   -9.3353    0.0000 C   0  0  2  0  0  0  0  0  0  0  0  0
    5.0522   -8.5103    0.0000 C   0  0  2  0  0  0  0  0  0  0  0  0
    4.3378   -8.0978    0.0000 C   0  0  0  0  0  0  0  0  0  0  0  0
    4.3378   -9.7478    0.0000 O   0  0  0  0  0  0  0  0  0  0  0  0
    5.7667  -10.5728    0.0000 O   0  0  0  0  0  0  0  0  0  0  0  0
    7.1956   -9.7478    0.0000 O   0  0  0  0  0  0  0  0  0  0  0  0
    8.6246   -7.2728    0.0000 O   0  0  0  0  0  0  0  0  0  0  0  0
    9.3391   -6.8603    0.0000 C   0  0  0  0  0  0  0  0  0  0  0  0
  1  2  1  0  0  0  0
  2  3  1  0  0  0  0
  3  4  2  0  0  0  0
  4  5  1  0  0  0  0
  5  6  2  0  0  0  0
  6  7  1  0  0  0  0
  2  7  2  0  0  0  0
  1  8  2  0  0  0  0
  1  9  1  0  0  0  0
 11 12  1  0  0  0  0
 12 13  1  0  0  0  0
 13 14  1  0  0  0  0
 14 15  1  0  0  0  0
 15 16  1  0  0  0  0
 11 16  1  0  0  0  0
 16 17  1  6  0  0  0
 15 18  1  1  0  0  0
 14 19  1  6  0  0  0
 13 20  1  6  0  0  0
 12 10  1  1  0  0  0
  5 10  1  0  0  0  0
 21 22  1  0  0  0  0
  4 21  1  0  0  0  0
M  END
>  <cdx:fragmentId>
25

$$$$
