97916.cdx
  Mrv1902 05222410232D          

 31 33  0  0  0  0            999 V2000
    9.6030   -7.6083    0.0000 O   0  0  0  0  0  0  0  0  0  0  0  0
   11.7464   -5.5458    0.0000 C   0  0  0  0  0  0  0  0  0  0  0  0
   11.0319   -5.1333    0.0000 O   0  0  0  0  0  0  0  0  0  0  0  0
   10.3174   -3.8958    0.0000 C   0  0  0  0  0  0  0  0  0  0  0  0
    9.6030   -4.3083    0.0000 O   0  0  0  0  0  0  0  0  0  0  0  0
    8.8885   -5.5458    0.0000 C   0  0  0  0  0  0  0  0  0  0  0  0
    9.6030   -5.1333    0.0000 C   0  0  0  0  0  0  0  0  0  0  0  0
   10.3174   -5.5458    0.0000 C   0  0  0  0  0  0  0  0  0  0  0  0
   10.3174   -6.3708    0.0000 C   0  0  0  0  0  0  0  0  0  0  0  0
    9.6030   -6.7833    0.0000 C   0  0  0  0  0  0  0  0  0  0  0  0
    8.8885   -6.3708    0.0000 C   0  0  0  0  0  0  0  0  0  0  0  0
    8.8885   -8.0208    0.0000 C   0  0  1  0  0  0  0  0  0  0  0  0
    8.8885   -8.8458    0.0000 C   0  0  1  0  0  0  0  0  0  0  0  0
    8.1740   -9.2583    0.0000 C   0  0  2  0  0  0  0  0  0  0  0  0
    7.4595   -8.8458    0.0000 C   0  0  1  0  0  0  0  0  0  0  0  0
    7.4595   -8.0208    0.0000 C   0  0  2  0  0  0  0  0  0  0  0  0
    8.1740   -7.6083    0.0000 O   0  0  0  0  0  0  0  0  0  0  0  0
    8.1740  -10.0833    0.0000 O   0  0  0  0  0  0  0  0  0  0  0  0
    9.6030   -9.2583    0.0000 O   0  0  0  0  0  0  0  0  0  0  0  0
    6.7451   -9.2583    0.0000 O   0  0  0  0  0  0  0  0  0  0  0  0
    6.0306   -8.0208    0.0000 O   0  0  0  0  0  0  0  0  0  0  0  0
    5.3687   -7.5283    0.0000 C   0  0  1  0  0  0  0  0  0  0  0  0
    4.5813   -7.7743    0.0000 C   0  0  1  0  0  0  0  0  0  0  0  0
    4.1040   -7.1014    0.0000 C   0  0  1  0  0  0  0  0  0  0  0  0
    4.5965   -6.4395    0.0000 C   0  0  0  0  0  0  0  0  0  0  0  0
    5.3781   -6.7034    0.0000 O   0  0  0  0  0  0  0  0  0  0  0  0
    4.3174   -8.5560    0.0000 O   0  0  0  0  0  0  0  0  0  0  0  0
    3.2790   -7.0920    0.0000 O   0  0  0  0  0  0  0  0  0  0  0  0
    3.5921   -6.4544    0.0000 C   0  0  0  0  0  0  0  0  0  0  0  0
    2.7681   -6.4140    0.0000 O   0  0  0  0  0  0  0  0  0  0  0  0
    6.7451   -7.6083    0.0000 C   0  0  0  0  0  0  0  0  0  0  0  0
 10  1  1  0  0  0  0
  3  2  1  0  0  0  0
  8  3  1  0  0  0  0
  5  4  1  0  0  0  0
  7  5  1  0  0  0  0
  6 11  1  0  0  0  0
  7  6  2  0  0  0  0
  8  7  1  0  0  0  0
  9  8  2  0  0  0  0
 10  9  1  0  0  0  0
 11 10  2  0  0  0  0
 12  1  1  1  0  0  0
 12 13  1  0  0  0  0
 13 14  1  0  0  0  0
 14 15  1  0  0  0  0
 15 16  1  0  0  0  0
 16 17  1  0  0  0  0
 17 12  1  0  0  0  0
 14 18  1  1  0  0  0
 13 19  1  6  0  0  0
 15 20  1  6  0  0  0
 16 31  1  1  0  0  0
 22 21  1  1  0  0  0
 22 23  1  0  0  0  0
 23 24  1  0  0  0  0
 24 25  1  0  0  0  0
 25 26  1  0  0  0  0
 26 22  1  0  0  0  0
 23 27  1  6  0  0  0
 24 28  1  6  0  0  0
 24 29  1  0  0  0  0
 31 21  1  0  0  0  0
 29 30  1  0  0  0  0
M  END
>  <cdx:fragmentId>
5

$$$$
