97912.cdx
  Mrv1902 05222410262D          

 35 38  0  0  0  0            999 V2000
    6.4453   -8.4027    0.0000 C   0  0  0  0  0  0  0  0  0  0  0  0
    6.4552   -7.5777    0.0000 C   0  0  0  0  0  0  0  0  0  0  0  0
    5.7457   -7.1567    0.0000 O   0  0  0  0  0  0  0  0  0  0  0  0
    7.1548   -8.8236    0.0000 C   0  0  0  0  0  0  0  0  0  0  0  0
    7.8742   -8.4197    0.0000 C   0  0  0  0  0  0  0  0  0  0  0  0
    7.8840   -7.5948    0.0000 C   0  0  0  0  0  0  0  0  0  0  0  0
    7.1745   -7.1738    0.0000 C   0  0  0  0  0  0  0  0  0  0  0  0
    8.5837   -8.8407    0.0000 C   0  0  0  0  0  0  0  0  0  0  0  0
    9.3030   -8.4367    0.0000 C   0  0  0  0  0  0  0  0  0  0  0  0
    9.3129   -7.6118    0.0000 C   0  0  0  0  0  0  0  0  0  0  0  0
    8.6034   -7.1908    0.0000 O   0  0  0  0  0  0  0  0  0  0  0  0
   10.0125   -8.8577    0.0000 O   0  0  0  0  0  0  0  0  0  0  0  0
   10.7417   -7.6288    0.0000 C   0  0  0  0  0  0  0  0  0  0  0  0
   10.0322   -7.2078    0.0000 C   0  0  0  0  0  0  0  0  0  0  0  0
   11.4610   -7.2249    0.0000 C   0  0  0  0  0  0  0  0  0  0  0  0
   11.4709   -6.3999    0.0000 C   0  0  0  0  0  0  0  0  0  0  0  0
   10.7614   -5.9789    0.0000 C   0  0  0  0  0  0  0  0  0  0  0  0
   10.0420   -6.3829    0.0000 C   0  0  0  0  0  0  0  0  0  0  0  0
    8.5738   -9.6656    0.0000 O   0  0  0  0  0  0  0  0  0  0  0  0
    7.1450   -9.6486    0.0000 O   0  0  0  0  0  0  0  0  0  0  0  0
   10.7712   -5.1540    0.0000 O   0  0  0  0  0  0  0  0  0  0  0  0
   12.1902   -5.9960    0.0000 O   0  0  0  0  0  0  0  0  0  0  0  0
    4.3241   -7.1496    0.0000 O   0  0  0  0  0  0  0  0  0  0  0  0
    3.6117   -7.5658    0.0000 C   0  0  1  0  0  0  0  0  0  0  0  0
    3.6159   -8.3908    0.0000 C   0  0  2  0  0  0  0  0  0  0  0  0
    4.3325   -8.7996    0.0000 C   0  0  1  0  0  0  0  0  0  0  0  0
    5.0449   -8.3835    0.0000 C   0  0  2  0  0  0  0  0  0  0  0  0
    5.0406   -7.5585    0.0000 C   0  0  2  0  0  0  0  0  0  0  0  0
    2.8951   -7.1569    0.0000 C   0  0  0  0  0  0  0  0  0  0  0  0
    2.1828   -7.5731    0.0000 O   0  0  0  0  0  0  0  0  0  0  0  0
    2.9036   -8.8069    0.0000 O   0  0  0  0  0  0  0  0  0  0  0  0
    4.3367   -9.6246    0.0000 O   0  0  0  0  0  0  0  0  0  0  0  0
    5.7614   -8.7923    0.0000 O   0  0  0  0  0  0  0  0  0  0  0  0
    2.8909   -6.3319    0.0000 O   0  0  0  0  0  0  0  0  0  0  0  0
    1.4662   -7.1642    0.0000 C   0  0  0  0  0  0  0  0  0  0  0  0
  1  2  2  0  0  0  0
  2  3  1  0  0  0  0
  1  4  1  0  0  0  0
  4  5  2  0  0  0  0
  5  6  1  0  0  0  0
  6  7  2  0  0  0  0
  7  2  1  0  0  0  0
  5  8  1  0  0  0  0
  8  9  1  0  0  0  0
  9 10  2  0  0  0  0
 10 11  1  0  0  0  0
 11  6  1  0  0  0  0
  9 12  1  0  0  0  0
 13 14  1  0  0  0  0
 14 10  1  0  0  0  0
 13 15  2  0  0  0  0
 15 16  1  0  0  0  0
 16 17  2  0  0  0  0
 17 18  1  0  0  0  0
 18 14  2  0  0  0  0
  8 19  2  0  0  0  0
  4 20  1  0  0  0  0
 17 21  1  0  0  0  0
 16 22  1  0  0  0  0
 23 24  1  0  0  0  0
 24 25  1  0  0  0  0
 25 26  1  0  0  0  0
 26 27  1  0  0  0  0
 27 28  1  0  0  0  0
 28 23  1  0  0  0  0
 24 29  1  1  0  0  0
 29 30  1  0  0  0  0
 25 31  1  6  0  0  0
 26 32  1  1  0  0  0
 27 33  1  6  0  0  0
 28  3  1  1  0  0  0
 29 34  2  0  0  0  0
 30 35  1  0  0  0  0
M  END
>  <cdx:fragmentId>
5

$$$$
