97918.cdx
  Mrv1902 05222410222D          

 29 31  0  0  0  0            999 V2000
    3.4837   -7.5900    0.0000 C   0  0  2  0  0  0  0  0  0  0  0  0
    3.4837   -8.4150    0.0000 C   0  0  2  0  0  0  0  0  0  0  0  0
    4.1981   -8.8275    0.0000 C   0  0  1  0  0  0  0  0  0  0  0  0
    4.9126   -8.4150    0.0000 C   0  0  2  0  0  0  0  0  0  0  0  0
    4.9126   -7.5900    0.0000 C   0  0  1  0  0  0  0  0  0  0  0  0
    4.1981   -7.1775    0.0000 O   0  0  0  0  0  0  0  0  0  0  0  0
    5.6271   -8.8275    0.0000 O   0  0  0  0  0  0  0  0  0  0  0  0
    6.3416   -8.4150    0.0000 C   0  0  0  0  0  0  0  0  0  0  0  0
    6.3416   -7.5900    0.0000 C   0  0  0  0  0  0  0  0  0  0  0  0
    5.6271   -7.1775    0.0000 O   0  0  0  0  0  0  0  0  0  0  0  0
    7.0560   -8.8275    0.0000 C   0  0  0  0  0  0  0  0  0  0  0  0
    7.7705   -8.4150    0.0000 C   0  0  0  0  0  0  0  0  0  0  0  0
    7.7705   -7.5900    0.0000 C   0  0  0  0  0  0  0  0  0  0  0  0
    7.0560   -7.1775    0.0000 C   0  0  0  0  0  0  0  0  0  0  0  0
    8.4850   -7.1775    0.0000 C   0  0  0  0  0  0  0  0  0  0  0  0
    9.1994   -7.5900    0.0000 C   0  0  0  0  0  0  0  0  0  0  0  0
    9.9139   -7.1775    0.0000 C   0  0  0  0  0  0  0  0  0  0  0  0
   10.6284   -7.5900    0.0000 C   0  0  0  0  0  0  0  0  0  0  0  0
   11.3429   -7.1775    0.0000 C   0  0  0  0  0  0  0  0  0  0  0  0
   11.3429   -6.3525    0.0000 C   0  0  0  0  0  0  0  0  0  0  0  0
   10.6284   -5.9400    0.0000 C   0  0  0  0  0  0  0  0  0  0  0  0
    9.9139   -6.3525    0.0000 C   0  0  0  0  0  0  0  0  0  0  0  0
   10.6284   -8.4150    0.0000 O   0  0  0  0  0  0  0  0  0  0  0  0
   12.0573   -5.9400    0.0000 O   0  0  0  0  0  0  0  0  0  0  0  0
    7.0560   -9.6525    0.0000 O   0  0  0  0  0  0  0  0  0  0  0  0
    2.7692   -7.1775    0.0000 C   0  0  0  0  0  0  0  0  0  0  0  0
    4.1981   -9.6525    0.0000 O   0  0  0  0  0  0  0  0  0  0  0  0
    2.7692   -8.8275    0.0000 O   0  0  0  0  0  0  0  0  0  0  0  0
    2.0547   -7.5900    0.0000 O   0  0  0  0  0  0  0  0  0  0  0  0
  1  2  1  0  0  0  0
  2  3  1  0  0  0  0
  3  4  1  0  0  0  0
  4  5  1  0  0  0  0
  5  6  1  0  0  0  0
  6  1  1  0  0  0  0
  4  7  1  6  0  0  0
  8  9  2  0  0  0  0
  9 10  1  0  0  0  0
  5 10  1  1  0  0  0
  8 11  1  0  0  0  0
 11 12  2  0  0  0  0
 12 13  1  0  0  0  0
 13 14  2  0  0  0  0
 14  9  1  0  0  0  0
 13 15  1  0  0  0  0
 15 16  2  0  0  0  0
 16 17  1  0  0  0  0
 17 18  2  0  0  0  0
 18 19  1  0  0  0  0
 19 20  2  0  0  0  0
 20 21  1  0  0  0  0
 21 22  2  0  0  0  0
 22 17  1  0  0  0  0
 18 23  1  0  0  0  0
 20 24  1  0  0  0  0
 11 25  1  0  0  0  0
  1 26  1  1  0  0  0
  3 27  1  1  0  0  0
  2 28  1  6  0  0  0
 26 29  1  0  0  0  0
M  END
>  <cdx:fragmentId>
5

$$$$
