97910.cdx
  Mrv1902 05222410242D          

 31 32  0  0  0  0            999 V2000
    5.5462  -11.9488    0.0000 C   0  0  1  0  0  0  0  0  0  0  0  0
    5.5462  -12.7737    0.0000 C   0  0  1  0  0  0  0  0  0  0  0  0
    6.2606  -13.1862    0.0000 C   0  0  2  0  0  0  0  0  0  0  0  0
    6.9751  -12.7737    0.0000 C   0  0  2  0  0  0  0  0  0  0  0  0
    6.9751  -11.9488    0.0000 C   0  0  1  0  0  0  0  0  0  0  0  0
    6.2606  -11.5362    0.0000 O   0  0  0  0  0  0  0  0  0  0  0  0
    7.6896  -11.5362    0.0000 O   0  0  0  0  0  0  0  0  0  0  0  0
    7.6896  -10.7112    0.0000 C   0  0  1  0  0  0  0  0  0  0  0  0
    6.9751  -10.2988    0.0000 C   0  0  2  0  0  0  0  0  0  0  0  0
    6.2606  -10.7112    0.0000 C   0  0  0  0  0  0  0  0  0  0  0  0
    8.4041  -10.2988    0.0000 C   0  0  2  0  0  0  0  0  0  0  0  0
    8.4041   -9.4738    0.0000 C   0  0  2  0  0  0  0  0  0  0  0  0
    7.6896   -9.0613    0.0000 C   0  0  1  0  0  0  0  0  0  0  0  0
    6.9751   -9.4738    0.0000 O   0  0  0  0  0  0  0  0  0  0  0  0
    4.8317  -13.1862    0.0000 O   0  0  0  0  0  0  0  0  0  0  0  0
    7.6896  -13.1862    0.0000 O   0  0  0  0  0  0  0  0  0  0  0  0
    4.8317  -11.5362    0.0000 C   0  0  0  0  0  0  0  0  0  0  0  0
    6.2606  -14.0113    0.0000 O   0  0  0  0  0  0  0  0  0  0  0  0
    9.1185  -10.7112    0.0000 O   0  0  0  0  0  0  0  0  0  0  0  0
    9.1185   -9.0613    0.0000 O   0  0  0  0  0  0  0  0  0  0  0  0
    7.6896   -8.2363    0.0000 O   0  0  0  0  0  0  0  0  0  0  0  0
    6.9751   -7.8237    0.0000 C   0  0  0  0  0  0  0  0  0  0  0  0
    6.9751   -6.9988    0.0000 C   0  0  0  0  0  0  0  0  0  0  0  0
    6.2606   -6.5863    0.0000 O   0  0  0  0  0  0  0  0  0  0  0  0
    6.2606   -5.7612    0.0000 C   0  0  0  0  0  0  0  0  0  0  0  0
    5.5462   -5.3487    0.0000 C   0  0  0  0  0  0  0  0  0  0  0  0
    5.5462   -4.5237    0.0000 O   0  0  0  0  0  0  0  0  0  0  0  0
    4.8317   -4.1113    0.0000 C   0  0  0  0  0  0  0  0  0  0  0  0
    4.8317   -3.2862    0.0000 C   0  0  0  0  0  0  0  0  0  0  0  0
    4.1172   -2.8738    0.0000 O   0  0  0  0  0  0  0  0  0  0  0  0
    5.5462   -2.8738    0.0000 O   0  0  0  0  0  0  0  0  0  0  0  0
  1  2  1  0  0  0  0
  2  3  1  0  0  0  0
  3  4  1  0  0  0  0
  4  5  1  0  0  0  0
  5  6  1  0  0  0  0
  6  1  1  0  0  0  0
  5  7  1  1  0  0  0
  8  7  1  1  0  0  0
  8  9  1  0  0  0  0
  9 10  1  6  0  0  0
  8 11  1  0  0  0  0
 11 12  1  0  0  0  0
 12 13  1  0  0  0  0
 13 14  1  0  0  0  0
 14  9  1  0  0  0  0
  2 15  1  1  0  0  0
  4 16  1  6  0  0  0
  1 17  1  6  0  0  0
  3 18  1  6  0  0  0
 11 19  1  6  0  0  0
 12 20  1  6  0  0  0
 13 21  1  1  0  0  0
 21 22  1  0  0  0  0
 22 23  1  0  0  0  0
 23 24  1  0  0  0  0
 24 25  1  0  0  0  0
 25 26  1  0  0  0  0
 26 27  1  0  0  0  0
 27 28  1  0  0  0  0
 28 29  1  0  0  0  0
 29 30  2  0  0  0  0
 29 31  1  0  0  0  0
M  END
>  <cdx:fragmentId>
5

$$$$
