97922.cdx
  Mrv1902 05222410212D          

 16 16  0  0  0  0            999 V2000
    3.7856   -8.9788    0.0000 C   0  0  0  0  0  0  0  0  0  0  0  0
    4.5001   -8.5663    0.0000 C   0  0  0  0  0  0  0  0  0  0  0  0
    5.2146   -8.9788    0.0000 C   0  0  0  0  0  0  0  0  0  0  0  0
    5.9291   -8.5663    0.0000 C   0  0  0  0  0  0  0  0  0  0  0  0
    6.6435   -8.1538    0.0000 C   0  0  0  0  0  0  0  0  0  0  0  0
    7.3580   -7.7413    0.0000 C   0  0  0  0  0  0  0  0  0  0  0  0
    8.0725   -8.1538    0.0000 C   0  0  0  0  0  0  0  0  0  0  0  0
    8.7869   -7.7413    0.0000 C   0  0  0  0  0  0  0  0  0  0  0  0
    9.5014   -8.1537    0.0000 C   0  0  0  0  0  0  0  0  0  0  0  0
   10.2159   -7.7413    0.0000 C   0  0  0  0  0  0  0  0  0  0  0  0
   10.2159   -6.9162    0.0000 C   0  0  0  0  0  0  0  0  0  0  0  0
    9.5014   -6.5038    0.0000 C   0  0  0  0  0  0  0  0  0  0  0  0
    8.7869   -6.9162    0.0000 C   0  0  0  0  0  0  0  0  0  0  0  0
    8.0725   -6.5038    0.0000 O   0  0  0  0  0  0  0  0  0  0  0  0
    9.5014   -8.9787    0.0000 C   0  0  0  0  0  0  0  0  0  0  0  0
   10.2159   -9.3912    0.0000 O   0  0  0  0  0  0  0  0  0  0  0  0
  1  2  1  0  0  0  0
  2  3  2  0  0  0  0
  3  4  1  0  0  0  0
  4  5  3  0  0  0  0
  5  6  1  0  0  0  0
  6  7  2  0  0  0  0
  7  8  1  0  0  0  0
  8  9  2  0  0  0  0
  9 10  1  0  0  0  0
 10 11  2  0  0  0  0
 11 12  1  0  0  0  0
 12 13  2  0  0  0  0
 13  8  1  0  0  0  0
 13 14  1  0  0  0  0
  9 15  1  0  0  0  0
 15 16  2  0  0  0  0
M  END
>  <cdx:fragmentId>
3

$$$$
