97929.cdx
  Mrv1902 05222410242D          

 41 45  0  0  0  0            999 V2000
   11.1244   -9.1110    0.0000 O   0  0  0  0  0  0  0  0  0  0  0  0
    9.6955   -7.4610    0.0000 C   0  0  0  0  0  0  0  0  0  0  0  0
   10.4100   -7.8735    0.0000 C   0  0  0  0  0  0  0  0  0  0  0  0
   10.4100   -8.6985    0.0000 C   0  0  0  0  0  0  0  0  0  0  0  0
    9.6955   -9.1110    0.0000 C   0  0  0  0  0  0  0  0  0  0  0  0
    8.9810   -8.6985    0.0000 C   0  0  0  0  0  0  0  0  0  0  0  0
    8.9810   -7.8735    0.0000 C   0  0  0  0  0  0  0  0  0  0  0  0
    4.6942   -7.8735    0.0000 O   0  0  0  0  0  0  0  0  0  0  0  0
    3.2653   -8.6985    0.0000 O   0  0  0  0  0  0  0  0  0  0  0  0
    1.8363   -7.8735    0.0000 O   0  0  0  0  0  0  0  0  0  0  0  0
    1.1219   -6.6360    0.0000 O   0  0  0  0  0  0  0  0  0  0  0  0
    1.8363   -6.2235    0.0000 C   0  0  0  0  0  0  0  0  0  0  0  0
    2.5508   -6.6360    0.0000 C   0  0  2  0  0  0  0  0  0  0  0  0
    2.5508   -7.4610    0.0000 C   0  0  2  0  0  0  0  0  0  0  0  0
    3.2653   -7.8735    0.0000 C   0  0  1  0  0  0  0  0  0  0  0  0
    3.9797   -7.4610    0.0000 C   0  0  2  0  0  0  0  0  0  0  0  0
    3.9797   -6.6360    0.0000 C   0  0  1  0  0  0  0  0  0  0  0  0
    3.2653   -6.2235    0.0000 O   0  0  0  0  0  0  0  0  0  0  0  0
    4.6942   -6.2235    0.0000 O   0  0  0  0  0  0  0  0  0  0  0  0
    7.5521   -8.6985    0.0000 O   0  0  0  0  0  0  0  0  0  0  0  0
    7.5521   -6.2235    0.0000 O   0  0  0  0  0  0  0  0  0  0  0  0
    6.8376   -6.6360    0.0000 C   0  0  0  0  0  0  0  0  0  0  0  0
    6.1231   -6.2235    0.0000 C   0  0  0  0  0  0  0  0  0  0  0  0
    5.4087   -6.6360    0.0000 C   0  0  0  0  0  0  0  0  0  0  0  0
    5.4087   -7.4610    0.0000 C   0  0  0  0  0  0  0  0  0  0  0  0
    6.1231   -7.8735    0.0000 C   0  0  0  0  0  0  0  0  0  0  0  0
    6.8376   -7.4610    0.0000 C   0  0  0  0  0  0  0  0  0  0  0  0
    7.5521   -7.8735    0.0000 C   0  0  0  0  0  0  0  0  0  0  0  0
    8.2666   -7.4610    0.0000 C   0  0  0  0  0  0  0  0  0  0  0  0
    8.2666   -6.6360    0.0000 C   0  0  0  0  0  0  0  0  0  0  0  0
   12.5600   -9.9481    0.0000 O   0  0  0  0  0  0  0  0  0  0  0  0
   12.5656  -11.5981    0.0000 O   0  0  0  0  0  0  0  0  0  0  0  0
   11.1395  -12.4279    0.0000 O   0  0  0  0  0  0  0  0  0  0  0  0
    9.7106  -12.4328    0.0000 O   0  0  0  0  0  0  0  0  0  0  0  0
    9.7078  -11.6078    0.0000 C   0  0  0  0  0  0  0  0  0  0  0  0
   10.4208  -11.1929    0.0000 C   0  0  2  0  0  0  0  0  0  0  0  0
   11.1367  -11.6029    0.0000 C   0  0  2  0  0  0  0  0  0  0  0  0
   11.8498  -11.1880    0.0000 C   0  0  1  0  0  0  0  0  0  0  0  0
   11.8470  -10.3630    0.0000 C   0  0  2  0  0  0  0  0  0  0  0  0
   11.1311   -9.9530    0.0000 C   0  0  1  0  0  0  0  0  0  0  0  0
   10.4180  -10.3679    0.0000 O   0  0  0  0  0  0  0  0  0  0  0  0
 29  7  1  0  0  0  0
  4  1  1  0  0  0  0
  7  2  2  0  0  0  0
  3  2  1  0  0  0  0
  4  3  2  0  0  0  0
  5  4  1  0  0  0  0
  6  5  2  0  0  0  0
  7  6  1  0  0  0  0
 24 19  1  0  0  0  0
 17 19  1  1  0  0  0
 16  8  1  6  0  0  0
 15  9  1  1  0  0  0
 14 10  1  6  0  0  0
 13 12  1  1  0  0  0
 12 11  1  0  0  0  0
 18 13  1  0  0  0  0
 14 13  1  0  0  0  0
 15 14  1  0  0  0  0
 16 15  1  0  0  0  0
 17 16  1  0  0  0  0
 18 17  1  0  0  0  0
 28 20  2  0  0  0  0
 30 21  1  0  0  0  0
 22 21  1  0  0  0  0
 27 22  2  0  0  0  0
 23 22  1  0  0  0  0
 24 23  2  0  0  0  0
 25 24  1  0  0  0  0
 26 25  2  0  0  0  0
 27 26  1  0  0  0  0
 28 27  1  0  0  0  0
 29 28  1  0  0  0  0
 30 29  2  0  0  0  0
 39 31  1  6  0  0  0
 38 32  1  1  0  0  0
 37 33  1  6  0  0  0
 36 35  1  1  0  0  0
 35 34  1  0  0  0  0
 41 36  1  0  0  0  0
 37 36  1  0  0  0  0
 38 37  1  0  0  0  0
 39 38  1  0  0  0  0
 40 39  1  0  0  0  0
 41 40  1  0  0  0  0
 40  1  1  1  0  0  0
M  END
>  <cdx:fragmentId>
29

$$$$
