97920.cdx
  Mrv1902 05222410212D          

 29 32  0  0  0  0            999 V2000
    4.7894  -10.9450    0.0000 O   0  0  0  0  0  0  0  0  0  0  0  0
    3.3605  -10.1200    0.0000 O   0  0  0  0  0  0  0  0  0  0  0  0
   12.1063   -7.8661    0.0000 O   0  0  0  0  0  0  0  0  0  0  0  0
   12.1063  -10.7239    0.0000 O   0  0  0  0  0  0  0  0  0  0  0  0
   10.8688  -10.0095    0.0000 C   0  0  0  0  0  0  0  0  0  0  0  0
   11.6938  -10.0095    0.0000 C   0  0  0  0  0  0  0  0  0  0  0  0
   12.1063   -9.2950    0.0000 C   0  0  0  0  0  0  0  0  0  0  0  0
   11.6938   -8.5805    0.0000 C   0  0  0  0  0  0  0  0  0  0  0  0
   10.8688   -8.5805    0.0000 C   0  0  0  0  0  0  0  0  0  0  0  0
   10.4563   -9.2950    0.0000 C   0  0  0  0  0  0  0  0  0  0  0  0
    9.1464   -9.9624    0.0000 C   0  0  0  0  0  0  0  0  0  0  0  0
    9.6313   -9.2950    0.0000 C   0  0  0  0  0  0  0  0  0  0  0  0
    9.1464   -8.6276    0.0000 O   0  0  0  0  0  0  0  0  0  0  0  0
    7.6473  -10.1200    0.0000 C   0  0  0  0  0  0  0  0  0  0  0  0
    8.3618   -9.7075    0.0000 C   0  0  0  0  0  0  0  0  0  0  0  0
    8.3618   -8.8825    0.0000 C   0  0  0  0  0  0  0  0  0  0  0  0
    7.6473   -8.4700    0.0000 C   0  0  0  0  0  0  0  0  0  0  0  0
    6.2183  -10.1200    0.0000 O   0  0  0  0  0  0  0  0  0  0  0  0
    6.9328   -9.7075    0.0000 C   0  0  0  0  0  0  0  0  0  0  0  0
    6.9328   -8.8825    0.0000 C   0  0  0  0  0  0  0  0  0  0  0  0
    6.2183   -8.4700    0.0000 O   0  0  0  0  0  0  0  0  0  0  0  0
    2.6460   -8.8825    0.0000 O   0  0  0  0  0  0  0  0  0  0  0  0
    3.3605   -8.4700    0.0000 C   0  0  0  0  0  0  0  0  0  0  0  0
    4.7894  -10.1200    0.0000 C   0  0  2  0  0  0  0  0  0  0  0  0
    5.5039   -9.7075    0.0000 C   0  0  2  0  0  0  0  0  0  0  0  0
    5.5039   -8.8825    0.0000 C   0  0  1  0  0  0  0  0  0  0  0  0
    4.7894   -8.4700    0.0000 O   0  0  0  0  0  0  0  0  0  0  0  0
    4.0749   -8.8825    0.0000 C   0  0  1  0  0  0  0  0  0  0  0  0
    4.0749   -9.7075    0.0000 C   0  0  1  0  0  0  0  0  0  0  0  0
 24  1  1  1  0  0  0
 29  2  1  6  0  0  0
  8  3  1  0  0  0  0
  6  4  1  0  0  0  0
  5 10  1  0  0  0  0
  6  5  2  0  0  0  0
  7  6  1  0  0  0  0
  8  7  2  0  0  0  0
  9  8  1  0  0  0  0
 10  9  2  0  0  0  0
 12 10  1  0  0  0  0
 11 15  1  0  0  0  0
 12 11  2  0  0  0  0
 13 12  1  0  0  0  0
 16 13  1  0  0  0  0
 14 19  1  0  0  0  0
 15 14  2  0  0  0  0
 16 15  1  0  0  0  0
 17 16  2  0  0  0  0
 20 17  1  0  0  0  0
 25 18  1  6  0  0  0
 20 19  2  0  0  0  0
 21 20  1  0  0  0  0
 26 21  1  1  0  0  0
 23 22  1  0  0  0  0
 28 23  1  1  0  0  0
 24 29  1  0  0  0  0
 25 24  1  0  0  0  0
 26 25  1  0  0  0  0
 27 26  1  0  0  0  0
 28 27  1  0  0  0  0
 29 28  1  0  0  0  0
M  END
>  <cdx:fragmentId>
5

$$$$
