97921.cdx
  Mrv1902 05222410222D          

 36 40  0  0  0  0            999 V2000
    9.7039   -8.9281    0.0000 H   0  0  0  0  0  0  0  0  0  0  0  0
    7.0961   -9.2360    0.0000 H   0  0  0  0  0  0  0  0  0  0  0  0
    5.8365  -10.5961    0.0000 H   0  0  0  0  0  0  0  0  0  0  0  0
    5.7293  -13.2198    0.0000 H   0  0  0  0  0  0  0  0  0  0  0  0
    7.8387  -12.0326    0.0000 C   0  0  0  0  0  0  0  0  0  0  0  0
    5.4276  -13.5221    0.0000 C   0  0  0  0  0  0  0  0  0  0  0  0
    4.6026  -13.5228    0.0000 C   0  0  0  0  0  0  0  0  0  0  0  0
    6.3330  -12.1304    0.0000 C   0  0  0  0  0  0  0  0  0  0  0  0
    8.6640   -9.6135    0.0000 C   0  0  0  0  0  0  0  0  0  0  0  0
    9.9198   -7.7815    0.0000 C   0  0  0  0  0  0  0  0  0  0  0  0
    9.9822   -8.6041    0.0000 C   0  0  0  0  0  0  0  0  0  0  0  0
    3.5855  -12.8093    0.0000 O   0  0  0  0  0  0  0  0  0  0  0  0
    8.9894  -10.4154    0.0000 C   0  0  0  0  0  0  0  0  0  0  0  0
    9.3467   -9.6717    0.0000 C   0  0  0  0  0  0  0  0  0  0  0  0
    8.8813   -8.9905    0.0000 C   0  0  1  0  0  0  0  0  0  0  0  0
    9.2386   -8.2469    0.0000 C   0  0  0  0  0  0  0  0  0  0  0  0
    8.7732   -7.5657    0.0000 C   0  0  0  0  0  0  0  0  0  0  0  0
    7.9506   -7.6281    0.0000 C   0  0  0  0  0  0  0  0  0  0  0  0
    7.5933   -8.3717    0.0000 C   0  0  0  0  0  0  0  0  0  0  0  0
    8.0587   -9.0529    0.0000 C   0  0  1  0  0  0  0  0  0  0  0  0
    7.7014   -9.7966    0.0000 C   0  0  1  0  0  0  0  0  0  0  0  0
    6.8787   -9.7357    0.0000 C   0  0  0  0  0  0  0  0  0  0  0  0
    6.3181  -10.3410    0.0000 C   0  0  0  0  0  0  0  0  0  0  0  0
    6.4418  -11.1566    0.0000 C   0  0  2  0  0  0  0  0  0  0  0  0
    5.7277  -11.5698    0.0000 C   0  0  2  0  0  0  0  0  0  0  0  0
    5.0129  -11.1580    0.0000 C   0  0  0  0  0  0  0  0  0  0  0  0
    4.2988  -11.5711    0.0000 C   0  0  0  0  0  0  0  0  0  0  0  0
    4.2996  -12.3961    0.0000 C   0  0  1  0  0  0  0  0  0  0  0  0
    5.0144  -12.8080    0.0000 C   0  0  0  0  0  0  0  0  0  0  0  0
    5.7285  -12.3948    0.0000 C   0  0  2  0  0  0  0  0  0  0  0  0
    6.4433  -12.8066    0.0000 C   0  0  0  0  0  0  0  0  0  0  0  0
    7.1574  -12.3935    0.0000 C   0  0  0  0  0  0  0  0  0  0  0  0
    7.1567  -11.5685    0.0000 C   0  0  2  0  0  0  0  0  0  0  0  0
    7.9244  -11.2664    0.0000 C   0  0  0  0  0  0  0  0  0  0  0  0
    8.1668  -10.4778    0.0000 C   0  0  0  0  0  0  0  0  0  0  0  0
    2.8706  -12.3975    0.0000 C   0  0  0  0  0  0  0  0  0  0  0  0
 15  1  1  1  0  0  0
 21  2  1  1  0  0  0
 24  3  1  6  0  0  0
 30  4  1  6  0  0  0
 33  5  1  1  0  0  0
 29  6  1  0  0  0  0
 29  7  1  0  0  0  0
 25  8  1  1  0  0  0
 20  9  1  6  0  0  0
 16 10  1  0  0  0  0
 16 11  1  0  0  0  0
 28 12  1  1  0  0  0
 30 25  1  0  0  0  0
 33 24  1  0  0  0  0
 20 15  1  0  0  0  0
 35 21  1  0  0  0  0
 35 13  2  0  0  0  0
 14 13  1  0  0  0  0
 15 14  1  0  0  0  0
 16 15  1  0  0  0  0
 17 16  1  0  0  0  0
 18 17  1  0  0  0  0
 19 18  1  0  0  0  0
 20 19  1  0  0  0  0
 21 20  1  0  0  0  0
 22 21  1  0  0  0  0
 23 22  1  0  0  0  0
 24 23  1  0  0  0  0
 25 24  1  0  0  0  0
 26 25  1  0  0  0  0
 27 26  1  0  0  0  0
 28 27  1  0  0  0  0
 29 28  1  0  0  0  0
 30 29  1  0  0  0  0
 31 30  1  0  0  0  0
 32 31  1  0  0  0  0
 33 32  1  0  0  0  0
 34 33  1  0  0  0  0
 35 34  1  0  0  0  0
 12 36  1  0  0  0  0
M  END
>  <cdx:fragmentId>
155

$$$$
