97924-￬ﾋﾜ￬ﾞﾑ.cdx
  Mrv1902 05222410222D          

 13 13  0  0  0  0            999 V2000
    7.1091   -7.0400    0.0000 C   0  0  1  0  0  0  0  0  0  0  0  0
    7.1091   -7.8650    0.0000 C   0  0  2  0  0  0  0  0  0  0  0  0
    7.8938   -8.1199    0.0000 C   0  0  0  0  0  0  0  0  0  0  0  0
    8.3787   -7.4525    0.0000 C   0  0  0  0  0  0  0  0  0  0  0  0
    7.8938   -6.7851    0.0000 O   0  0  0  0  0  0  0  0  0  0  0  0
    6.3123   -6.8265    0.0000 C   0  0  0  0  0  0  0  0  0  0  0  0
    7.1091   -6.2150    0.0000 O   0  0  0  0  0  0  0  0  0  0  0  0
    6.3123   -7.6515    0.0000 H   0  0  0  0  0  0  0  0  0  0  0  0
    6.5258   -8.4484    0.0000 C   0  0  2  0  0  0  0  0  0  0  0  0
    5.7289   -8.2348    0.0000 C   0  0  0  0  0  0  0  0  0  0  0  0
    5.1455   -8.8182    0.0000 O   0  0  0  0  0  0  0  0  0  0  0  0
    5.5154   -7.4379    0.0000 O   0  0  0  0  0  0  0  0  0  0  0  0
    6.7393   -9.2453    0.0000 C   0  0  0  0  0  0  0  0  0  0  0  0
  1  2  1  0  0  0  0
  2  3  1  0  0  0  0
  3  4  1  0  0  0  0
  4  5  1  0  0  0  0
  5  1  1  0  0  0  0
  1  6  1  6  0  0  0
  1  7  1  1  0  0  0
  2  8  1  1  0  0  0
  2  9  1  0  0  0  0
  9 10  1  0  0  0  0
 10 11  1  0  0  0  0
 10 12  2  0  0  0  0
  9 13  1  1  0  0  0
M  END
>  <cdx:fragmentId>
5

$$$$
