97925.cdx
  Mrv1902 05222410222D          

 10 10  0  0  0  0            999 V2000
    6.2612   -5.8712    0.0000 C   0  0  0  0  0  0  0  0  0  0  0  0
    6.2612   -6.6962    0.0000 C   0  0  0  0  0  0  0  0  0  0  0  0
    6.9756   -7.1088    0.0000 N   0  0  0  0  0  0  0  0  0  0  0  0
    7.6901   -6.6962    0.0000 C   0  0  2  0  0  0  0  0  0  0  0  0
    7.6901   -5.8712    0.0000 C   0  0  0  0  0  0  0  0  0  0  0  0
    5.5467   -7.1088    0.0000 O   0  0  0  0  0  0  0  0  0  0  0  0
    8.4046   -7.1088    0.0000 C   0  0  0  0  0  0  0  0  0  0  0  0
    9.1191   -6.6962    0.0000 O   0  0  0  0  0  0  0  0  0  0  0  0
    8.4046   -7.9337    0.0000 O   0  0  0  0  0  0  0  0  0  0  0  0
    9.8335   -7.1088    0.0000 C   0  0  0  0  0  0  0  0  0  0  0  0
  1  2  1  0  0  0  0
  2  3  1  0  0  0  0
  3  4  1  0  0  0  0
  4  5  1  0  0  0  0
  1  5  1  0  0  0  0
  2  6  2  0  0  0  0
  4  7  1  6  0  0  0
  7  8  1  0  0  0  0
  7  9  2  0  0  0  0
  8 10  1  0  0  0  0
M  END
>  <cdx:fragmentId>
5

$$$$
