97923.cdx
  Mrv1902 05222410202D          

 21 22  0  0  0  0            999 V2000
    4.9229   -6.5038    0.0000 C   0  0  0  0  0  0  0  0  0  0  0  0
    4.9229   -7.3287    0.0000 O   0  0  0  0  0  0  0  0  0  0  0  0
    5.7075   -7.5837    0.0000 C   0  0  0  0  0  0  0  0  0  0  0  0
    6.1924   -6.9162    0.0000 C   0  0  0  0  0  0  0  0  0  0  0  0
    5.7075   -6.2488    0.0000 C   0  0  0  0  0  0  0  0  0  0  0  0
    4.2555   -6.0188    0.0000 C   0  0  0  0  0  0  0  0  0  0  0  0
    4.2555   -5.1938    0.0000 O   0  0  0  0  0  0  0  0  0  0  0  0
    5.9625   -8.3683    0.0000 C   0  0  0  0  0  0  0  0  0  0  0  0
    6.7593   -8.5818    0.0000 C   0  0  0  0  0  0  0  0  0  0  0  0
    7.4738   -8.1693    0.0000 C   0  0  0  0  0  0  0  0  0  0  0  0
    6.9309   -9.3888    0.0000 C   0  0  0  0  0  0  0  0  0  0  0  0
    7.7513   -9.4750    0.0000 C   0  0  1  0  0  0  0  0  0  0  0  0
    8.0869   -8.7214    0.0000 O   0  0  0  0  0  0  0  0  0  0  0  0
    7.5600   -7.3489    0.0000 C   0  0  2  0  0  0  0  0  0  0  0  0
    6.8926   -6.8639    0.0000 O   0  0  0  0  0  0  0  0  0  0  0  0
    8.3137   -7.0133    0.0000 C   0  0  0  0  0  0  0  0  0  0  0  0
    8.9812   -7.4982    0.0000 O   0  0  0  0  0  0  0  0  0  0  0  0
    6.3788  -10.0019    0.0000 O   0  0  0  0  0  0  0  0  0  0  0  0
    8.1638  -10.1895    0.0000 O   0  0  0  0  0  0  0  0  0  0  0  0
    8.9888  -10.1895    0.0000 C   0  0  0  0  0  0  0  0  0  0  0  0
    9.4013  -10.9040    0.0000 C   0  0  0  0  0  0  0  0  0  0  0  0
  1  2  1  0  0  0  0
  2  3  1  0  0  0  0
  3  4  2  0  0  0  0
  4  5  1  0  0  0  0
  5  1  2  0  0  0  0
  1  6  1  0  0  0  0
  6  7  1  0  0  0  0
  3  8  1  0  0  0  0
  8  9  2  0  0  0  0
  9 10  1  0  0  0  0
  9 11  1  0  0  0  0
 11 12  1  0  0  0  0
 12 13  1  0  0  0  0
 13 10  1  0  0  0  0
 10 14  1  0  0  0  0
 14 15  1  6  0  0  0
 14 16  1  0  0  0  0
 16 17  1  0  0  0  0
 11 18  2  0  0  0  0
 12 19  1  1  0  0  0
 19 20  1  0  0  0  0
 20 21  1  0  0  0  0
M  END
>  <cdx:fragmentId>
5

$$$$
