97927.cdx
  Mrv1902 05222410232D          

 43 47  0  0  0  0            999 V2000
    6.3162   -7.7275    0.0000 C   0  0  0  0  0  0  0  0  0  0  0  0
    6.3162   -8.5525    0.0000 C   0  0  0  0  0  0  0  0  0  0  0  0
    7.0306   -8.9650    0.0000 C   0  0  0  0  0  0  0  0  0  0  0  0
    7.7451   -8.5525    0.0000 C   0  0  0  0  0  0  0  0  0  0  0  0
    7.7451   -7.7275    0.0000 C   0  0  0  0  0  0  0  0  0  0  0  0
    7.0306   -7.3150    0.0000 C   0  0  0  0  0  0  0  0  0  0  0  0
    8.4596   -8.9650    0.0000 C   0  0  0  0  0  0  0  0  0  0  0  0
    9.1741   -8.5525    0.0000 C   0  0  0  0  0  0  0  0  0  0  0  0
    9.1741   -7.7275    0.0000 C   0  0  0  0  0  0  0  0  0  0  0  0
    8.4596   -7.3150    0.0000 O   0  0  0  0  0  0  0  0  0  0  0  0
    8.4596   -9.7900    0.0000 O   0  0  0  0  0  0  0  0  0  0  0  0
    9.8885   -9.7900    0.0000 C   0  0  0  0  0  0  0  0  0  0  0  0
    9.8885   -8.9650    0.0000 C   0  0  0  0  0  0  0  0  0  0  0  0
   10.6030  -10.2025    0.0000 C   0  0  0  0  0  0  0  0  0  0  0  0
   11.3175   -9.7900    0.0000 C   0  0  0  0  0  0  0  0  0  0  0  0
   11.3175   -8.9650    0.0000 C   0  0  0  0  0  0  0  0  0  0  0  0
   10.6030   -8.5525    0.0000 C   0  0  0  0  0  0  0  0  0  0  0  0
   12.0319   -8.5525    0.0000 O   0  0  0  0  0  0  0  0  0  0  0  0
   12.0319  -10.2025    0.0000 O   0  0  0  0  0  0  0  0  0  0  0  0
    5.6017   -7.3150    0.0000 O   0  0  0  0  0  0  0  0  0  0  0  0
    7.0306   -6.4900    0.0000 C   0  0  2  0  0  0  0  0  0  0  0  0
    7.7451   -6.0775    0.0000 O   0  0  0  0  0  0  0  0  0  0  0  0
    7.7451   -5.2525    0.0000 C   0  0  1  0  0  0  0  0  0  0  0  0
    7.0306   -4.8400    0.0000 C   0  0  2  0  0  0  0  0  0  0  0  0
    6.3162   -5.2525    0.0000 C   0  0  1  0  0  0  0  0  0  0  0  0
    6.3162   -6.0775    0.0000 C   0  0  1  0  0  0  0  0  0  0  0  0
    8.4596   -4.8400    0.0000 C   0  0  0  0  0  0  0  0  0  0  0  0
    8.4596   -4.0150    0.0000 O   0  0  0  0  0  0  0  0  0  0  0  0
    5.6017   -4.8400    0.0000 O   0  0  0  0  0  0  0  0  0  0  0  0
    5.6017   -6.4900    0.0000 O   0  0  0  0  0  0  0  0  0  0  0  0
    7.0306   -4.0150    0.0000 O   0  0  0  0  0  0  0  0  0  0  0  0
    4.8872   -7.7275    0.0000 C   0  0  2  0  0  0  0  0  0  0  0  0
    4.1728   -7.3150    0.0000 O   0  0  0  0  0  0  0  0  0  0  0  0
    3.4583   -7.7275    0.0000 C   0  0  1  0  0  0  0  0  0  0  0  0
    3.4583   -8.5525    0.0000 C   0  0  2  0  0  0  0  0  0  0  0  0
    4.1728   -8.9650    0.0000 C   0  0  1  0  0  0  0  0  0  0  0  0
    4.8872   -8.5525    0.0000 C   0  0  1  0  0  0  0  0  0  0  0  0
    2.7438   -7.3150    0.0000 C   0  0  0  0  0  0  0  0  0  0  0  0
    4.1728   -9.7900    0.0000 O   0  0  0  0  0  0  0  0  0  0  0  0
    2.7438   -8.9650    0.0000 O   0  0  0  0  0  0  0  0  0  0  0  0
    5.6017   -8.9650    0.0000 O   0  0  0  0  0  0  0  0  0  0  0  0
    2.0294   -7.7275    0.0000 O   0  0  0  0  0  0  0  0  0  0  0  0
    7.7451   -6.9025    0.0000 H   0  0  0  0  0  0  0  0  0  0  0  0
  1  2  2  0  0  0  0
  2  3  1  0  0  0  0
  3  4  2  0  0  0  0
  4  5  1  0  0  0  0
  5  6  2  0  0  0  0
  6  1  1  0  0  0  0
  4  7  1  0  0  0  0
  7  8  1  0  0  0  0
  8  9  2  0  0  0  0
  9 10  1  0  0  0  0
 10  5  1  0  0  0  0
  7 11  2  0  0  0  0
 12 13  2  0  0  0  0
 13  8  1  0  0  0  0
 12 14  1  0  0  0  0
 14 15  2  0  0  0  0
 15 16  1  0  0  0  0
 16 17  2  0  0  0  0
 17 13  1  0  0  0  0
 16 18  1  0  0  0  0
 15 19  1  0  0  0  0
  1 20  1  0  0  0  0
  6 21  1  0  0  0  0
 21 22  1  0  0  0  0
 22 23  1  0  0  0  0
 23 24  1  0  0  0  0
 24 25  1  0  0  0  0
 25 26  1  0  0  0  0
 26 21  1  0  0  0  0
 23 27  1  1  0  0  0
 27 28  1  0  0  0  0
 25 29  1  1  0  0  0
 26 30  1  6  0  0  0
 24 31  1  6  0  0  0
 32 20  1  1  0  0  0
 32 33  1  0  0  0  0
 33 34  1  0  0  0  0
 34 35  1  0  0  0  0
 35 36  1  0  0  0  0
 36 37  1  0  0  0  0
 37 32  1  0  0  0  0
 34 38  1  1  0  0  0
 36 39  1  1  0  0  0
 35 40  1  6  0  0  0
 37 41  1  6  0  0  0
 38 42  1  0  0  0  0
 21 43  1  6  0  0  0
M  END
>  <cdx:fragmentId>
5

$$$$
