97926.cdx
  Mrv1902 05222410222D          

 37 40  0  0  0  0            999 V2000
    8.6246   -7.1278    0.0000 C   0  0  0  0  0  0  0  0  0  0  0  0
    9.3391   -7.5403    0.0000 C   0  0  1  0  0  0  0  0  0  0  0  0
    9.3391   -8.3653    0.0000 C   0  0  0  0  0  0  0  0  0  0  0  0
    8.6246   -8.7778    0.0000 C   0  0  0  0  0  0  0  0  0  0  0  0
    7.9101   -8.3653    0.0000 C   0  0  1  0  0  0  0  0  0  0  0  0
    7.1956   -8.7778    0.0000 C   0  0  2  0  0  0  0  0  0  0  0  0
    7.1956   -9.6028    0.0000 C   0  0  0  0  0  0  0  0  0  0  0  0
    6.4812  -10.0153    0.0000 C   0  0  0  0  0  0  0  0  0  0  0  0
    5.7667   -9.6028    0.0000 C   0  0  1  0  0  0  0  0  0  0  0  0
    5.0522  -10.0153    0.0000 C   0  0  0  0  0  0  0  0  0  0  0  0
    4.3378   -9.6028    0.0000 C   0  0  2  0  0  0  0  0  0  0  0  0
    4.3378   -8.7778    0.0000 C   0  0  0  0  0  0  0  0  0  0  0  0
    5.0522   -8.3653    0.0000 C   0  0  0  0  0  0  0  0  0  0  0  0
    5.7667   -8.7778    0.0000 C   0  0  2  0  0  0  0  0  0  0  0  0
    6.4812   -8.3653    0.0000 C   0  0  1  0  0  0  0  0  0  0  0  0
    6.4812   -7.5403    0.0000 C   0  0  0  0  0  0  0  0  0  0  0  0
    7.1956   -7.1278    0.0000 C   0  0  0  0  0  0  0  0  0  0  0  0
    7.9101   -7.5403    0.0000 C   0  0  2  0  0  0  0  0  0  0  0  0
    8.6246   -6.3028    0.0000 O   0  0  0  0  0  0  0  0  0  0  0  0
   10.0535   -7.1278    0.0000 C   0  0  0  0  0  0  0  0  0  0  0  0
   10.7680   -7.5403    0.0000 C   0  0  0  0  0  0  0  0  0  0  0  0
   11.4825   -7.1278    0.0000 C   0  0  0  0  0  0  0  0  0  0  0  0
   12.1969   -7.5403    0.0000 C   0  0  0  0  0  0  0  0  0  0  0  0
   11.4825   -6.3028    0.0000 O   0  0  0  0  0  0  0  0  0  0  0  0
    5.7667   -7.9528    0.0000 C   0  0  0  0  0  0  0  0  0  0  0  0
    5.4647  -10.7298    0.0000 C   0  0  0  0  0  0  0  0  0  0  0  0
    4.6397  -10.7298    0.0000 C   0  0  0  0  0  0  0  0  0  0  0  0
    7.1956   -7.9528    0.0000 C   0  0  0  0  0  0  0  0  0  0  0  0
    7.9101   -9.1903    0.0000 C   0  0  0  0  0  0  0  0  0  0  0  0
    9.3391   -6.7153    0.0000 C   0  0  0  0  0  0  0  0  0  0  0  0
    3.6233  -10.0153    0.0000 O   0  0  0  0  0  0  0  0  0  0  0  0
    2.9088   -9.6028    0.0000 C   0  0  0  0  0  0  0  0  0  0  0  0
    2.9088   -8.7778    0.0000 O   0  0  0  0  0  0  0  0  0  0  0  0
    2.1944  -10.0153    0.0000 C   0  0  0  0  0  0  0  0  0  0  0  0
    5.7667  -10.4278    0.0000 H   0  0  0  0  0  0  0  0  0  0  0  0
    6.4812   -9.1903    0.0000 H   0  0  0  0  0  0  0  0  0  0  0  0
    7.9101   -6.7153    0.0000 H   0  0  0  0  0  0  0  0  0  0  0  0
  1  2  1  0  0  0  0
  2  3  1  0  0  0  0
  3  4  1  0  0  0  0
  4  5  1  0  0  0  0
  5  6  1  0  0  0  0
  6  7  1  0  0  0  0
  7  8  1  0  0  0  0
  8  9  1  0  0  0  0
  9 10  1  0  0  0  0
 10 11  1  0  0  0  0
 11 12  1  0  0  0  0
 12 13  1  0  0  0  0
 13 14  1  0  0  0  0
  9 14  1  0  0  0  0
 14 15  1  0  0  0  0
  6 15  1  0  0  0  0
 15 16  1  0  0  0  0
 16 17  1  0  0  0  0
 17 18  1  0  0  0  0
  5 18  1  0  0  0  0
  1 18  1  0  0  0  0
  1 19  2  0  0  0  0
 20 21  1  0  0  0  0
 21 22  1  0  0  0  0
 22 23  1  0  0  0  0
 22 24  2  0  0  0  0
  2 20  1  0  0  0  0
 14 25  1  1  0  0  0
 10 26  1  0  0  0  0
 10 27  1  0  0  0  0
  6 28  1  1  0  0  0
  5 29  1  6  0  0  0
  2 30  1  1  0  0  0
 32 33  2  0  0  0  0
 32 34  1  0  0  0  0
 31 32  1  0  0  0  0
 11 31  1  1  0  0  0
  9 35  1  6  0  0  0
 15 36  1  6  0  0  0
 18 37  1  1  0  0  0
M  END
>  <cdx:fragmentId>
5

$$$$
