97931.cdx
  Mrv1902 05222410222D          

 24 26  0  0  0  0            999 V2000
    4.6524   -8.0713    0.0000 C   0  0  0  0  0  0  0  0  0  0  0  0
    4.6524   -8.8963    0.0000 C   0  0  0  0  0  0  0  0  0  0  0  0
    5.3669   -9.3087    0.0000 C   0  0  0  0  0  0  0  0  0  0  0  0
    6.0814   -8.8963    0.0000 C   0  0  0  0  0  0  0  0  0  0  0  0
    6.0814   -8.0713    0.0000 C   0  0  0  0  0  0  0  0  0  0  0  0
    5.3669   -7.6587    0.0000 C   0  0  0  0  0  0  0  0  0  0  0  0
    6.7958   -9.3087    0.0000 C   0  0  0  0  0  0  0  0  0  0  0  0
    7.5103   -8.8963    0.0000 C   0  0  0  0  0  0  0  0  0  0  0  0
    7.5103   -8.0713    0.0000 C   0  0  0  0  0  0  0  0  0  0  0  0
    6.7958   -7.6587    0.0000 O   0  0  0  0  0  0  0  0  0  0  0  0
    8.2248   -9.3087    0.0000 O   0  0  0  0  0  0  0  0  0  0  0  0
    8.9393   -8.0713    0.0000 C   0  0  0  0  0  0  0  0  0  0  0  0
    8.2248   -7.6587    0.0000 C   0  0  0  0  0  0  0  0  0  0  0  0
    9.6537   -7.6587    0.0000 C   0  0  0  0  0  0  0  0  0  0  0  0
    9.6537   -6.8338    0.0000 C   0  0  0  0  0  0  0  0  0  0  0  0
    8.9393   -6.4213    0.0000 C   0  0  0  0  0  0  0  0  0  0  0  0
    8.2248   -6.8338    0.0000 C   0  0  0  0  0  0  0  0  0  0  0  0
    3.9380   -7.6587    0.0000 O   0  0  0  0  0  0  0  0  0  0  0  0
    5.3669  -10.1338    0.0000 O   0  0  0  0  0  0  0  0  0  0  0  0
    6.7958  -10.1338    0.0000 O   0  0  0  0  0  0  0  0  0  0  0  0
    8.9393   -5.5962    0.0000 O   0  0  0  0  0  0  0  0  0  0  0  0
    8.2248   -5.1837    0.0000 C   0  0  0  0  0  0  0  0  0  0  0  0
   10.3682   -6.4213    0.0000 O   0  0  0  0  0  0  0  0  0  0  0  0
   10.3682   -8.0713    0.0000 O   0  0  0  0  0  0  0  0  0  0  0  0
  1  2  2  0  0  0  0
  2  3  1  0  0  0  0
  3  4  2  0  0  0  0
  4  5  1  0  0  0  0
  5  6  2  0  0  0  0
  6  1  1  0  0  0  0
  4  7  1  0  0  0  0
  7  8  1  0  0  0  0
  8  9  2  0  0  0  0
  9 10  1  0  0  0  0
 10  5  1  0  0  0  0
  8 11  1  0  0  0  0
 12 13  2  0  0  0  0
 13  9  1  0  0  0  0
 12 14  1  0  0  0  0
 14 15  2  0  0  0  0
 15 16  1  0  0  0  0
 16 17  2  0  0  0  0
 17 13  1  0  0  0  0
  1 18  1  0  0  0  0
  3 19  1  0  0  0  0
  7 20  2  0  0  0  0
 16 21  1  0  0  0  0
 21 22  1  0  0  0  0
 15 23  1  0  0  0  0
 14 24  1  0  0  0  0
M  END
>  <cdx:fragmentId>
5

$$$$
