97933.cdx
  Mrv1902 05222410232D          

 43 47  0  0  0  0            999 V2000
    2.9887   -7.8788    0.0000 C   0  0  0  0  0  0  0  0  0  0  0  0
    2.9887   -8.7037    0.0000 C   0  0  0  0  0  0  0  0  0  0  0  0
    3.7031   -9.1162    0.0000 C   0  0  0  0  0  0  0  0  0  0  0  0
    4.4176   -8.7037    0.0000 C   0  0  0  0  0  0  0  0  0  0  0  0
    4.4176   -7.8788    0.0000 C   0  0  0  0  0  0  0  0  0  0  0  0
    3.7031   -7.4663    0.0000 C   0  0  0  0  0  0  0  0  0  0  0  0
    5.1321   -9.1162    0.0000 C   0  0  0  0  0  0  0  0  0  0  0  0
    5.8466   -8.7037    0.0000 C   0  0  0  0  0  0  0  0  0  0  0  0
    5.8466   -7.8788    0.0000 C   0  0  0  0  0  0  0  0  0  0  0  0
    5.1321   -7.4663    0.0000 O   0  0  0  0  0  0  0  0  0  0  0  0
    6.5610   -9.1162    0.0000 O   0  0  0  0  0  0  0  0  0  0  0  0
    7.2755   -7.8788    0.0000 C   0  0  0  0  0  0  0  0  0  0  0  0
    6.5610   -7.4663    0.0000 C   0  0  0  0  0  0  0  0  0  0  0  0
    7.9900   -7.4663    0.0000 C   0  0  0  0  0  0  0  0  0  0  0  0
    7.9900   -6.6413    0.0000 C   0  0  0  0  0  0  0  0  0  0  0  0
    7.2755   -6.2287    0.0000 C   0  0  0  0  0  0  0  0  0  0  0  0
    6.5610   -6.6413    0.0000 C   0  0  0  0  0  0  0  0  0  0  0  0
    2.2742   -7.4663    0.0000 O   0  0  0  0  0  0  0  0  0  0  0  0
    3.7031   -9.9413    0.0000 O   0  0  0  0  0  0  0  0  0  0  0  0
    5.1321   -9.9413    0.0000 O   0  0  0  0  0  0  0  0  0  0  0  0
    8.7044   -6.2287    0.0000 O   0  0  0  0  0  0  0  0  0  0  0  0
    5.8422  -11.1783    0.0000 C   0  0  2  0  0  0  0  0  0  0  0  0
    6.5576  -11.5890    0.0000 C   0  0  2  0  0  0  0  0  0  0  0  0
    7.2711  -11.1748    0.0000 C   0  0  1  0  0  0  0  0  0  0  0  0
    7.2691  -10.3498    0.0000 C   0  0  2  0  0  0  0  0  0  0  0  0
    6.5536   -9.9390    0.0000 C   0  0  1  0  0  0  0  0  0  0  0  0
    5.8401  -10.3533    0.0000 O   0  0  0  0  0  0  0  0  0  0  0  0
    5.1287  -11.5925    0.0000 C   0  0  0  0  0  0  0  0  0  0  0  0
    7.9866  -11.5855    0.0000 O   0  0  0  0  0  0  0  0  0  0  0  0
    6.5597  -12.4140    0.0000 O   0  0  0  0  0  0  0  0  0  0  0  0
    7.9825   -9.9355    0.0000 O   0  0  0  0  0  0  0  0  0  0  0  0
    5.1307  -12.4175    0.0000 O   0  0  0  0  0  0  0  0  0  0  0  0
    9.4189   -6.6412    0.0000 C   0  0  2  0  0  0  0  0  0  0  0  0
    9.4189   -7.4662    0.0000 O   0  0  0  0  0  0  0  0  0  0  0  0
   10.1334   -7.8787    0.0000 C   0  0  1  0  0  0  0  0  0  0  0  0
   10.8479   -7.4662    0.0000 C   0  0  2  0  0  0  0  0  0  0  0  0
   10.8479   -6.6412    0.0000 C   0  0  1  0  0  0  0  0  0  0  0  0
   10.1334   -6.2287    0.0000 C   0  0  1  0  0  0  0  0  0  0  0  0
   10.1334   -8.7037    0.0000 C   0  0  0  0  0  0  0  0  0  0  0  0
   11.5623   -6.2287    0.0000 O   0  0  0  0  0  0  0  0  0  0  0  0
   10.1334   -5.4037    0.0000 O   0  0  0  0  0  0  0  0  0  0  0  0
   11.5623   -7.8787    0.0000 O   0  0  0  0  0  0  0  0  0  0  0  0
   10.8479   -9.1162    0.0000 O   0  0  0  0  0  0  0  0  0  0  0  0
  1  2  2  0  0  0  0
  2  3  1  0  0  0  0
  3  4  2  0  0  0  0
  4  5  1  0  0  0  0
  5  6  2  0  0  0  0
  6  1  1  0  0  0  0
  4  7  1  0  0  0  0
  7  8  1  0  0  0  0
  8  9  2  0  0  0  0
  9 10  1  0  0  0  0
 10  5  1  0  0  0  0
  8 11  1  0  0  0  0
 12 13  2  0  0  0  0
 13  9  1  0  0  0  0
 12 14  1  0  0  0  0
 14 15  2  0  0  0  0
 15 16  1  0  0  0  0
 16 17  2  0  0  0  0
 17 13  1  0  0  0  0
  1 18  1  0  0  0  0
  3 19  1  0  0  0  0
  7 20  2  0  0  0  0
 15 21  1  0  0  0  0
 22 23  1  0  0  0  0
 23 24  1  0  0  0  0
 24 25  1  0  0  0  0
 25 26  1  0  0  0  0
 26 27  1  0  0  0  0
 27 22  1  0  0  0  0
 22 28  1  1  0  0  0
 24 29  1  1  0  0  0
 23 30  1  6  0  0  0
 25 31  1  6  0  0  0
 28 32  1  0  0  0  0
 26 11  1  1  0  0  0
 33 21  1  1  0  0  0
 33 34  1  0  0  0  0
 34 35  1  0  0  0  0
 35 36  1  0  0  0  0
 36 37  1  0  0  0  0
 37 38  1  0  0  0  0
 38 33  1  0  0  0  0
 35 39  1  1  0  0  0
 37 40  1  1  0  0  0
 38 41  1  6  0  0  0
 36 42  1  6  0  0  0
 39 43  1  0  0  0  0
M  END
>  <cdx:fragmentId>
5

$$$$
