97935.cdx
  Mrv1902 05222410222D          

 64 70  0  0  0  0            999 V2000
    4.9687   -4.6200    0.0000 C   0  0  0  0  0  0  0  0  0  0  0  0
    4.9687   -5.4450    0.0000 C   0  0  0  0  0  0  0  0  0  0  0  0
    5.6831   -5.8575    0.0000 C   0  0  0  0  0  0  0  0  0  0  0  0
    6.3976   -5.4450    0.0000 C   0  0  0  0  0  0  0  0  0  0  0  0
    6.3976   -4.6200    0.0000 C   0  0  0  0  0  0  0  0  0  0  0  0
    5.6831   -4.2075    0.0000 C   0  0  0  0  0  0  0  0  0  0  0  0
    7.1121   -5.8575    0.0000 C   0  0  0  0  0  0  0  0  0  0  0  0
    7.8266   -5.4450    0.0000 C   0  0  0  0  0  0  0  0  0  0  0  0
    7.8266   -4.6200    0.0000 C   0  0  0  0  0  0  0  0  0  0  0  0
    7.1121   -4.2075    0.0000 O   0  0  0  0  0  0  0  0  0  0  0  0
    8.5410   -5.8575    0.0000 O   0  0  0  0  0  0  0  0  0  0  0  0
    9.2555   -4.6200    0.0000 C   0  0  0  0  0  0  0  0  0  0  0  0
    8.5410   -4.2075    0.0000 C   0  0  0  0  0  0  0  0  0  0  0  0
    9.9700   -4.2075    0.0000 C   0  0  0  0  0  0  0  0  0  0  0  0
    9.9700   -3.3825    0.0000 C   0  0  0  0  0  0  0  0  0  0  0  0
    9.2555   -2.9700    0.0000 C   0  0  0  0  0  0  0  0  0  0  0  0
    8.5410   -3.3825    0.0000 C   0  0  0  0  0  0  0  0  0  0  0  0
    4.2542   -4.2075    0.0000 O   0  0  0  0  0  0  0  0  0  0  0  0
    5.6831   -6.6825    0.0000 O   0  0  0  0  0  0  0  0  0  0  0  0
    7.1121   -6.6825    0.0000 O   0  0  0  0  0  0  0  0  0  0  0  0
   10.6844   -2.9700    0.0000 O   0  0  0  0  0  0  0  0  0  0  0  0
    8.5388   -6.7003    0.0000 C   0  0  2  0  0  0  0  0  0  0  0  0
    7.8243   -7.1127    0.0000 O   0  0  0  0  0  0  0  0  0  0  0  0
    7.8241   -7.9377    0.0000 C   0  0  2  0  0  0  0  0  0  0  0  0
    8.5385   -8.3503    0.0000 C   0  0  1  0  0  0  0  0  0  0  0  0
    9.2531   -7.9380    0.0000 C   0  0  2  0  0  0  0  0  0  0  0  0
    9.2532   -7.1130    0.0000 C   0  0  1  0  0  0  0  0  0  0  0  0
    8.5383   -9.1753    0.0000 O   0  0  0  0  0  0  0  0  0  0  0  0
    7.1096   -8.3501    0.0000 C   0  0  0  0  0  0  0  0  0  0  0  0
    9.9674   -8.3506    0.0000 O   0  0  0  0  0  0  0  0  0  0  0  0
    9.9678   -6.7006    0.0000 O   0  0  0  0  0  0  0  0  0  0  0  0
   10.6822   -7.1133    0.0000 C   0  0  2  0  0  0  0  0  0  0  0  0
   10.6820   -7.9383    0.0000 O   0  0  0  0  0  0  0  0  0  0  0  0
   11.3964   -8.3509    0.0000 C   0  0  1  0  0  0  0  0  0  0  0  0
   12.1109   -7.9386    0.0000 C   0  0  2  0  0  0  0  0  0  0  0  0
   12.1111   -7.1136    0.0000 C   0  0  1  0  0  0  0  0  0  0  0  0
   11.3967   -6.7009    0.0000 C   0  0  1  0  0  0  0  0  0  0  0  0
   11.3962   -9.1759    0.0000 C   0  0  0  0  0  0  0  0  0  0  0  0
   12.8257   -6.7012    0.0000 O   0  0  0  0  0  0  0  0  0  0  0  0
   10.6817   -9.5883    0.0000 O   0  0  0  0  0  0  0  0  0  0  0  0
   10.6815  -10.4133    0.0000 C   0  0  0  0  0  0  0  0  0  0  0  0
    9.9669  -10.8256    0.0000 C   0  0  0  0  0  0  0  0  0  0  0  0
   11.3959  -10.8259    0.0000 O   0  0  0  0  0  0  0  0  0  0  0  0
    9.9668  -11.6506    0.0000 C   0  0  0  0  0  0  0  0  0  0  0  0
    9.2522  -12.0630    0.0000 C   0  0  0  0  0  0  0  0  0  0  0  0
    8.5378  -11.6503    0.0000 C   0  0  0  0  0  0  0  0  0  0  0  0
    7.8233  -12.0627    0.0000 C   0  0  0  0  0  0  0  0  0  0  0  0
    7.8231  -12.8877    0.0000 C   0  0  0  0  0  0  0  0  0  0  0  0
    8.5375  -13.3003    0.0000 C   0  0  0  0  0  0  0  0  0  0  0  0
    9.2520  -12.8880    0.0000 C   0  0  0  0  0  0  0  0  0  0  0  0
    7.1085  -13.3001    0.0000 O   0  0  0  0  0  0  0  0  0  0  0  0
   12.8253   -8.3512    0.0000 O   0  0  0  0  0  0  0  0  0  0  0  0
   11.3969   -5.8759    0.0000 O   0  0  0  0  0  0  0  0  0  0  0  0
    3.5494   -4.6259    0.0000 C   0  0  2  0  0  0  0  0  0  0  0  0
    2.8319   -4.2186    0.0000 O   0  0  0  0  0  0  0  0  0  0  0  0
    2.1205   -4.6363    0.0000 C   0  0  1  0  0  0  0  0  0  0  0  0
    2.1265   -5.4612    0.0000 C   0  0  2  0  0  0  0  0  0  0  0  0
    2.8439   -5.8685    0.0000 C   0  0  1  0  0  0  0  0  0  0  0  0
    3.5554   -5.4508    0.0000 C   0  0  1  0  0  0  0  0  0  0  0  0
    1.4030   -4.2290    0.0000 C   0  0  0  0  0  0  0  0  0  0  0  0
    2.8499   -6.6935    0.0000 O   0  0  0  0  0  0  0  0  0  0  0  0
    1.4150   -5.8789    0.0000 O   0  0  0  0  0  0  0  0  0  0  0  0
    4.2728   -5.8581    0.0000 O   0  0  0  0  0  0  0  0  0  0  0  0
    0.6916   -4.6467    0.0000 O   0  0  0  0  0  0  0  0  0  0  0  0
  1  2  2  0  0  0  0
  2  3  1  0  0  0  0
  3  4  2  0  0  0  0
  4  5  1  0  0  0  0
  5  6  2  0  0  0  0
  6  1  1  0  0  0  0
  4  7  1  0  0  0  0
  7  8  1  0  0  0  0
  8  9  2  0  0  0  0
  9 10  1  0  0  0  0
 10  5  1  0  0  0  0
  8 11  1  0  0  0  0
 12 13  2  0  0  0  0
 13  9  1  0  0  0  0
 12 14  1  0  0  0  0
 14 15  2  0  0  0  0
 15 16  1  0  0  0  0
 16 17  2  0  0  0  0
 17 13  1  0  0  0  0
  1 18  1  0  0  0  0
  3 19  1  0  0  0  0
  7 20  2  0  0  0  0
 15 21  1  0  0  0  0
 22 23  1  0  0  0  0
 23 24  1  0  0  0  0
 24 25  1  0  0  0  0
 25 26  1  0  0  0  0
 26 27  1  0  0  0  0
 27 22  1  0  0  0  0
 25 28  1  1  0  0  0
 24 29  1  6  0  0  0
 26 30  1  6  0  0  0
 27 31  1  6  0  0  0
 32 31  1  1  0  0  0
 32 33  1  0  0  0  0
 33 34  1  0  0  0  0
 34 35  1  0  0  0  0
 35 36  1  0  0  0  0
 36 37  1  0  0  0  0
 37 32  1  0  0  0  0
 34 38  1  1  0  0  0
 36 39  1  1  0  0  0
 38 40  1  0  0  0  0
 40 41  1  0  0  0  0
 41 42  1  0  0  0  0
 41 43  2  0  0  0  0
 42 44  2  0  0  0  0
 44 45  1  0  0  0  0
 45 46  2  0  0  0  0
 46 47  1  0  0  0  0
 47 48  2  0  0  0  0
 48 49  1  0  0  0  0
 49 50  2  0  0  0  0
 50 45  1  0  0  0  0
 48 51  1  0  0  0  0
 35 52  1  6  0  0  0
 37 53  1  6  0  0  0
 22 11  1  1  0  0  0
 54 55  1  0  0  0  0
 55 56  1  0  0  0  0
 56 57  1  0  0  0  0
 57 58  1  0  0  0  0
 58 59  1  0  0  0  0
 59 54  1  0  0  0  0
 56 60  1  1  0  0  0
 58 61  1  1  0  0  0
 57 62  1  6  0  0  0
 59 63  1  6  0  0  0
 54 18  1  1  0  0  0
 60 64  1  0  0  0  0
M  END
>  <cdx:fragmentId>
228

$$$$
