97932.cdx
  Mrv1902 05222410222D          

 43 47  0  0  0  0            999 V2000
    6.0137   -8.2912    0.0000 C   0  0  0  0  0  0  0  0  0  0  0  0
    6.0137   -9.1162    0.0000 C   0  0  0  0  0  0  0  0  0  0  0  0
    6.7281   -9.5287    0.0000 C   0  0  0  0  0  0  0  0  0  0  0  0
    7.4426   -9.1162    0.0000 C   0  0  0  0  0  0  0  0  0  0  0  0
    7.4426   -8.2912    0.0000 C   0  0  0  0  0  0  0  0  0  0  0  0
    6.7281   -7.8788    0.0000 C   0  0  0  0  0  0  0  0  0  0  0  0
    8.1571   -9.5287    0.0000 C   0  0  0  0  0  0  0  0  0  0  0  0
    8.8716   -9.1162    0.0000 C   0  0  0  0  0  0  0  0  0  0  0  0
    8.8716   -8.2912    0.0000 C   0  0  0  0  0  0  0  0  0  0  0  0
    8.1571   -7.8788    0.0000 O   0  0  0  0  0  0  0  0  0  0  0  0
    9.5860   -9.5287    0.0000 O   0  0  0  0  0  0  0  0  0  0  0  0
   10.3005   -8.2912    0.0000 C   0  0  0  0  0  0  0  0  0  0  0  0
    9.5860   -7.8788    0.0000 C   0  0  0  0  0  0  0  0  0  0  0  0
   11.0150   -7.8788    0.0000 C   0  0  0  0  0  0  0  0  0  0  0  0
   11.0150   -7.0537    0.0000 C   0  0  0  0  0  0  0  0  0  0  0  0
   10.3005   -6.6413    0.0000 C   0  0  0  0  0  0  0  0  0  0  0  0
    9.5860   -7.0537    0.0000 C   0  0  0  0  0  0  0  0  0  0  0  0
    5.2992   -7.8788    0.0000 O   0  0  0  0  0  0  0  0  0  0  0  0
    6.7281  -10.3537    0.0000 O   0  0  0  0  0  0  0  0  0  0  0  0
    8.1571  -10.3537    0.0000 O   0  0  0  0  0  0  0  0  0  0  0  0
   11.7294   -6.6413    0.0000 O   0  0  0  0  0  0  0  0  0  0  0  0
    3.1537   -8.2912    0.0000 C   0  0  2  0  0  0  0  0  0  0  0  0
    3.1537   -9.1162    0.0000 C   0  0  2  0  0  0  0  0  0  0  0  0
    3.8681   -9.5287    0.0000 C   0  0  1  0  0  0  0  0  0  0  0  0
    4.5826   -9.1162    0.0000 C   0  0  2  0  0  0  0  0  0  0  0  0
    4.5826   -8.2912    0.0000 C   0  0  1  0  0  0  0  0  0  0  0  0
    3.8681   -7.8788    0.0000 O   0  0  0  0  0  0  0  0  0  0  0  0
    2.4392   -7.8788    0.0000 C   0  0  0  0  0  0  0  0  0  0  0  0
    3.8681  -10.3537    0.0000 O   0  0  0  0  0  0  0  0  0  0  0  0
    2.4392   -9.5287    0.0000 O   0  0  0  0  0  0  0  0  0  0  0  0
    5.2971   -9.5287    0.0000 O   0  0  0  0  0  0  0  0  0  0  0  0
    1.7247   -8.2912    0.0000 O   0  0  0  0  0  0  0  0  0  0  0  0
    8.8672  -11.5908    0.0000 C   0  0  2  0  0  0  0  0  0  0  0  0
    9.5826  -12.0015    0.0000 C   0  0  2  0  0  0  0  0  0  0  0  0
   10.2961  -11.5873    0.0000 C   0  0  1  0  0  0  0  0  0  0  0  0
   10.2941  -10.7623    0.0000 C   0  0  2  0  0  0  0  0  0  0  0  0
    9.5786  -10.3515    0.0000 C   0  0  1  0  0  0  0  0  0  0  0  0
    8.8651  -10.7658    0.0000 O   0  0  0  0  0  0  0  0  0  0  0  0
    8.1537  -12.0050    0.0000 C   0  0  0  0  0  0  0  0  0  0  0  0
   11.0116  -11.9980    0.0000 O   0  0  0  0  0  0  0  0  0  0  0  0
    9.5847  -12.8265    0.0000 O   0  0  0  0  0  0  0  0  0  0  0  0
   11.0075  -10.3480    0.0000 O   0  0  0  0  0  0  0  0  0  0  0  0
    8.1557  -12.8300    0.0000 O   0  0  0  0  0  0  0  0  0  0  0  0
  1  2  2  0  0  0  0
  2  3  1  0  0  0  0
  3  4  2  0  0  0  0
  4  5  1  0  0  0  0
  5  6  2  0  0  0  0
  6  1  1  0  0  0  0
  4  7  1  0  0  0  0
  7  8  1  0  0  0  0
  8  9  2  0  0  0  0
  9 10  1  0  0  0  0
 10  5  1  0  0  0  0
  8 11  1  0  0  0  0
 12 13  2  0  0  0  0
 13  9  1  0  0  0  0
 12 14  1  0  0  0  0
 14 15  2  0  0  0  0
 15 16  1  0  0  0  0
 16 17  2  0  0  0  0
 17 13  1  0  0  0  0
  1 18  1  0  0  0  0
  3 19  1  0  0  0  0
  7 20  2  0  0  0  0
 15 21  1  0  0  0  0
 22 23  1  0  0  0  0
 23 24  1  0  0  0  0
 24 25  1  0  0  0  0
 25 26  1  0  0  0  0
 26 27  1  0  0  0  0
 27 22  1  0  0  0  0
 22 28  1  1  0  0  0
 24 29  1  1  0  0  0
 23 30  1  6  0  0  0
 25 31  1  6  0  0  0
 28 32  1  0  0  0  0
 33 34  1  0  0  0  0
 34 35  1  0  0  0  0
 35 36  1  0  0  0  0
 36 37  1  0  0  0  0
 37 38  1  0  0  0  0
 38 33  1  0  0  0  0
 33 39  1  1  0  0  0
 35 40  1  1  0  0  0
 34 41  1  6  0  0  0
 36 42  1  6  0  0  0
 39 43  1  0  0  0  0
 26 18  1  1  0  0  0
 37 11  1  1  0  0  0
M  END
>  <cdx:fragmentId>
5

$$$$
