97930.cdx
  Mrv1902 05222410222D          

 41 45  0  0  0  0            999 V2000
    8.9276   -6.8697    0.0000 C   0  0  0  0  0  0  0  0  0  0  0  0
    8.9276   -6.0447    0.0000 C   0  0  0  0  0  0  0  0  0  0  0  0
    8.2131   -5.6322    0.0000 C   0  0  0  0  0  0  0  0  0  0  0  0
    7.4987   -6.0447    0.0000 C   0  0  0  0  0  0  0  0  0  0  0  0
    6.7842   -5.6322    0.0000 C   0  0  0  0  0  0  0  0  0  0  0  0
    6.0697   -6.0447    0.0000 C   0  0  0  0  0  0  0  0  0  0  0  0
    6.0697   -6.8697    0.0000 C   0  0  0  0  0  0  0  0  0  0  0  0
    6.7842   -7.2822    0.0000 C   0  0  0  0  0  0  0  0  0  0  0  0
    7.4987   -6.8697    0.0000 C   0  0  0  0  0  0  0  0  0  0  0  0
    8.2131   -7.2822    0.0000 O   0  0  0  0  0  0  0  0  0  0  0  0
    8.2131   -4.8072    0.0000 O   0  0  0  0  0  0  0  0  0  0  0  0
    6.0697   -8.5197    0.0000 O   0  0  0  0  0  0  0  0  0  0  0  0
    6.7842   -8.1072    0.0000 C   0  0  0  0  0  0  0  0  0  0  0  0
    7.4987   -8.5197    0.0000 C   0  0  1  0  0  0  0  0  0  0  0  0
    7.4987   -9.3447    0.0000 C   0  0  2  0  0  0  0  0  0  0  0  0
    6.7842   -9.7572    0.0000 C   0  0  1  0  0  0  0  0  0  0  0  0
    6.0697   -9.3447    0.0000 C   0  0  1  0  0  0  0  0  0  0  0  0
    5.3553   -9.7572    0.0000 C   0  0  0  0  0  0  0  0  0  0  0  0
    4.6408   -9.3447    0.0000 O   0  0  0  0  0  0  0  0  0  0  0  0
    6.7842  -10.5822    0.0000 O   0  0  0  0  0  0  0  0  0  0  0  0
    8.2131   -9.7572    0.0000 O   0  0  0  0  0  0  0  0  0  0  0  0
    8.2131   -8.1072    0.0000 O   0  0  0  0  0  0  0  0  0  0  0  0
    9.6421   -5.6322    0.0000 C   0  0  0  0  0  0  0  0  0  0  0  0
    9.6421   -4.8072    0.0000 C   0  0  0  0  0  0  0  0  0  0  0  0
   10.3566   -4.3947    0.0000 C   0  0  0  0  0  0  0  0  0  0  0  0
   11.0710   -4.8072    0.0000 C   0  0  0  0  0  0  0  0  0  0  0  0
   11.0710   -5.6322    0.0000 C   0  0  0  0  0  0  0  0  0  0  0  0
   10.3566   -6.0447    0.0000 C   0  0  0  0  0  0  0  0  0  0  0  0
   11.7855   -4.3947    0.0000 O   0  0  0  0  0  0  0  0  0  0  0  0
    5.3553   -7.2822    0.0000 O   0  0  0  0  0  0  0  0  0  0  0  0
    4.6445   -6.0456    0.0000 O   0  0  0  0  0  0  0  0  0  0  0  0
    4.6422   -6.8706    0.0000 C   0  0  0  0  0  0  0  0  0  0  0  0
    3.9266   -7.2811    0.0000 C   0  0  1  0  0  0  0  0  0  0  0  0
    3.2132   -6.8667    0.0000 C   0  0  2  0  0  0  0  0  0  0  0  0
    3.2155   -6.0417    0.0000 C   0  0  1  0  0  0  0  0  0  0  0  0
    3.9311   -5.6311    0.0000 C   0  0  1  0  0  0  0  0  0  0  0  0
    3.9334   -4.8061    0.0000 C   0  0  0  0  0  0  0  0  0  0  0  0
    4.6490   -4.3956    0.0000 O   0  0  0  0  0  0  0  0  0  0  0  0
    2.5022   -5.6272    0.0000 O   0  0  0  0  0  0  0  0  0  0  0  0
    2.4976   -7.2772    0.0000 O   0  0  0  0  0  0  0  0  0  0  0  0
    3.9243   -8.1061    0.0000 O   0  0  0  0  0  0  0  0  0  0  0  0
  1  2  2  0  0  0  0
  2  3  1  0  0  0  0
  3  4  1  0  0  0  0
  4  5  1  0  0  0  0
  5  6  2  0  0  0  0
  6  7  1  0  0  0  0
  7  8  2  0  0  0  0
  8  9  1  0  0  0  0
  4  9  2  0  0  0  0
  9 10  1  0  0  0  0
  1 10  1  0  0  0  0
  3 11  2  0  0  0  0
 12 13  1  0  0  0  0
 13 14  1  0  0  0  0
 14 15  1  0  0  0  0
 15 16  1  0  0  0  0
 16 17  1  0  0  0  0
 12 17  1  0  0  0  0
 18 19  1  0  0  0  0
 17 18  1  1  0  0  0
 16 20  1  6  0  0  0
 15 21  1  1  0  0  0
 14 22  1  6  0  0  0
 13  8  1  0  0  0  0
 23 24  1  0  0  0  0
 24 25  2  0  0  0  0
 25 26  1  0  0  0  0
 26 27  2  0  0  0  0
 27 28  1  0  0  0  0
 23 28  2  0  0  0  0
 26 29  1  0  0  0  0
  2 23  1  0  0  0  0
  7 30  1  0  0  0  0
 31 32  1  0  0  0  0
 32 33  1  0  0  0  0
 33 34  1  0  0  0  0
 34 35  1  0  0  0  0
 35 36  1  0  0  0  0
 31 36  1  0  0  0  0
 37 38  1  0  0  0  0
 36 37  1  1  0  0  0
 35 39  1  6  0  0  0
 34 40  1  1  0  0  0
 33 41  1  6  0  0  0
 32 30  1  0  0  0  0
M  END
>  <cdx:fragmentId>
5

$$$$
