97936.cdx
  Mrv1902 05222410212D          

 64 70  0  0  0  0            999 V2000
    3.9374   -4.4000    0.0000 C   0  0  0  0  0  0  0  0  0  0  0  0
    3.9374   -5.2250    0.0000 C   0  0  0  0  0  0  0  0  0  0  0  0
    4.6519   -5.6375    0.0000 C   0  0  0  0  0  0  0  0  0  0  0  0
    5.3664   -5.2250    0.0000 C   0  0  0  0  0  0  0  0  0  0  0  0
    5.3664   -4.4000    0.0000 C   0  0  0  0  0  0  0  0  0  0  0  0
    4.6519   -3.9875    0.0000 C   0  0  0  0  0  0  0  0  0  0  0  0
    6.0808   -5.6375    0.0000 C   0  0  0  0  0  0  0  0  0  0  0  0
    6.7953   -5.2250    0.0000 C   0  0  0  0  0  0  0  0  0  0  0  0
    6.7953   -4.4000    0.0000 C   0  0  0  0  0  0  0  0  0  0  0  0
    6.0808   -3.9875    0.0000 O   0  0  0  0  0  0  0  0  0  0  0  0
    7.5098   -5.6375    0.0000 O   0  0  0  0  0  0  0  0  0  0  0  0
    8.2243   -4.4000    0.0000 C   0  0  0  0  0  0  0  0  0  0  0  0
    7.5098   -3.9875    0.0000 C   0  0  0  0  0  0  0  0  0  0  0  0
    8.9387   -3.9875    0.0000 C   0  0  0  0  0  0  0  0  0  0  0  0
    8.9387   -3.1625    0.0000 C   0  0  0  0  0  0  0  0  0  0  0  0
    8.2243   -2.7500    0.0000 C   0  0  0  0  0  0  0  0  0  0  0  0
    7.5098   -3.1625    0.0000 C   0  0  0  0  0  0  0  0  0  0  0  0
    3.2230   -3.9875    0.0000 O   0  0  0  0  0  0  0  0  0  0  0  0
    4.6519   -6.4625    0.0000 O   0  0  0  0  0  0  0  0  0  0  0  0
    6.0808   -6.4625    0.0000 O   0  0  0  0  0  0  0  0  0  0  0  0
    9.6532   -2.7500    0.0000 O   0  0  0  0  0  0  0  0  0  0  0  0
    7.5076   -6.4803    0.0000 C   0  0  2  0  0  0  0  0  0  0  0  0
    6.7930   -6.8927    0.0000 O   0  0  0  0  0  0  0  0  0  0  0  0
    6.7929   -7.7177    0.0000 C   0  0  2  0  0  0  0  0  0  0  0  0
    7.5072   -8.1303    0.0000 C   0  0  1  0  0  0  0  0  0  0  0  0
    8.2218   -7.7180    0.0000 C   0  0  2  0  0  0  0  0  0  0  0  0
    8.2220   -6.8930    0.0000 C   0  0  1  0  0  0  0  0  0  0  0  0
    7.5071   -8.9553    0.0000 O   0  0  0  0  0  0  0  0  0  0  0  0
    6.0783   -8.1301    0.0000 C   0  0  0  0  0  0  0  0  0  0  0  0
    8.9362   -8.1306    0.0000 O   0  0  0  0  0  0  0  0  0  0  0  0
    8.9365   -6.4806    0.0000 O   0  0  0  0  0  0  0  0  0  0  0  0
    9.6509   -6.8933    0.0000 C   0  0  2  0  0  0  0  0  0  0  0  0
    9.6507   -7.7183    0.0000 O   0  0  0  0  0  0  0  0  0  0  0  0
   10.3651   -8.1309    0.0000 C   0  0  1  0  0  0  0  0  0  0  0  0
   11.0797   -7.7186    0.0000 C   0  0  2  0  0  0  0  0  0  0  0  0
   11.0799   -6.8936    0.0000 C   0  0  1  0  0  0  0  0  0  0  0  0
   10.3655   -6.4809    0.0000 C   0  0  1  0  0  0  0  0  0  0  0  0
   10.3650   -8.9559    0.0000 C   0  0  0  0  0  0  0  0  0  0  0  0
   11.7944   -6.4812    0.0000 O   0  0  0  0  0  0  0  0  0  0  0  0
    9.6504   -9.3683    0.0000 O   0  0  0  0  0  0  0  0  0  0  0  0
    9.6502  -10.1933    0.0000 C   0  0  0  0  0  0  0  0  0  0  0  0
    8.9357  -10.6056    0.0000 C   0  0  0  0  0  0  0  0  0  0  0  0
   10.3646  -10.6059    0.0000 O   0  0  0  0  0  0  0  0  0  0  0  0
    8.9355  -11.4306    0.0000 C   0  0  0  0  0  0  0  0  0  0  0  0
    8.2210  -11.8430    0.0000 C   0  0  0  0  0  0  0  0  0  0  0  0
    7.5066  -11.4303    0.0000 C   0  0  0  0  0  0  0  0  0  0  0  0
    6.7920  -11.8427    0.0000 C   0  0  0  0  0  0  0  0  0  0  0  0
    6.7918  -12.6677    0.0000 C   0  0  0  0  0  0  0  0  0  0  0  0
    7.5062  -13.0803    0.0000 C   0  0  0  0  0  0  0  0  0  0  0  0
    8.2208  -12.6680    0.0000 C   0  0  0  0  0  0  0  0  0  0  0  0
    6.0773  -13.0801    0.0000 O   0  0  0  0  0  0  0  0  0  0  0  0
   11.7941   -8.1312    0.0000 O   0  0  0  0  0  0  0  0  0  0  0  0
   10.3656   -5.6559    0.0000 O   0  0  0  0  0  0  0  0  0  0  0  0
    5.3600  -12.6634    0.0000 C   0  0  2  0  0  0  0  0  0  0  0  0
    5.3583  -11.8384    0.0000 O   0  0  0  0  0  0  0  0  0  0  0  0
    4.6430  -11.4273    0.0000 C   0  0  1  0  0  0  0  0  0  0  0  0
    3.9294  -11.8413    0.0000 C   0  0  2  0  0  0  0  0  0  0  0  0
    3.9311  -12.6663    0.0000 C   0  0  1  0  0  0  0  0  0  0  0  0
    4.6464  -13.0773    0.0000 C   0  0  1  0  0  0  0  0  0  0  0  0
    4.6413  -10.6023    0.0000 C   0  0  0  0  0  0  0  0  0  0  0  0
    3.2174  -13.0802    0.0000 O   0  0  0  0  0  0  0  0  0  0  0  0
    3.9268  -10.1898    0.0000 O   0  0  0  0  0  0  0  0  0  0  0  0
    3.2141  -11.4302    0.0000 O   0  0  0  0  0  0  0  0  0  0  0  0
    4.6481  -13.9023    0.0000 O   0  0  0  0  0  0  0  0  0  0  0  0
  1  2  2  0  0  0  0
  2  3  1  0  0  0  0
  3  4  2  0  0  0  0
  4  5  1  0  0  0  0
  5  6  2  0  0  0  0
  6  1  1  0  0  0  0
  4  7  1  0  0  0  0
  7  8  1  0  0  0  0
  8  9  2  0  0  0  0
  9 10  1  0  0  0  0
 10  5  1  0  0  0  0
  8 11  1  0  0  0  0
 12 13  2  0  0  0  0
 13  9  1  0  0  0  0
 12 14  1  0  0  0  0
 14 15  2  0  0  0  0
 15 16  1  0  0  0  0
 16 17  2  0  0  0  0
 17 13  1  0  0  0  0
  1 18  1  0  0  0  0
  3 19  1  0  0  0  0
  7 20  2  0  0  0  0
 15 21  1  0  0  0  0
 22 23  1  0  0  0  0
 23 24  1  0  0  0  0
 24 25  1  0  0  0  0
 25 26  1  0  0  0  0
 26 27  1  0  0  0  0
 27 22  1  0  0  0  0
 25 28  1  1  0  0  0
 24 29  1  6  0  0  0
 26 30  1  6  0  0  0
 27 31  1  6  0  0  0
 32 31  1  1  0  0  0
 32 33  1  0  0  0  0
 33 34  1  0  0  0  0
 34 35  1  0  0  0  0
 35 36  1  0  0  0  0
 36 37  1  0  0  0  0
 37 32  1  0  0  0  0
 34 38  1  1  0  0  0
 36 39  1  1  0  0  0
 38 40  1  0  0  0  0
 40 41  1  0  0  0  0
 41 42  1  0  0  0  0
 41 43  2  0  0  0  0
 42 44  2  0  0  0  0
 44 45  1  0  0  0  0
 45 46  2  0  0  0  0
 46 47  1  0  0  0  0
 47 48  2  0  0  0  0
 48 49  1  0  0  0  0
 49 50  2  0  0  0  0
 50 45  1  0  0  0  0
 48 51  1  0  0  0  0
 35 52  1  6  0  0  0
 37 53  1  6  0  0  0
 22 11  1  1  0  0  0
 54 55  1  0  0  0  0
 55 56  1  0  0  0  0
 56 57  1  0  0  0  0
 57 58  1  0  0  0  0
 58 59  1  0  0  0  0
 59 54  1  0  0  0  0
 56 60  1  1  0  0  0
 58 61  1  1  0  0  0
 60 62  1  0  0  0  0
 57 63  1  6  0  0  0
 59 64  1  6  0  0  0
 54 51  1  1  0  0  0
M  END
>  <cdx:fragmentId>
228

$$$$
