97934.cdx
  Mrv1902 05222410212D          

 54 59  0  0  0  0            999 V2000
    3.4562   -4.5375    0.0000 C   0  0  0  0  0  0  0  0  0  0  0  0
    3.4562   -5.3625    0.0000 C   0  0  0  0  0  0  0  0  0  0  0  0
    4.1706   -5.7750    0.0000 C   0  0  0  0  0  0  0  0  0  0  0  0
    4.8851   -5.3625    0.0000 C   0  0  0  0  0  0  0  0  0  0  0  0
    4.8851   -4.5375    0.0000 C   0  0  0  0  0  0  0  0  0  0  0  0
    4.1706   -4.1250    0.0000 C   0  0  0  0  0  0  0  0  0  0  0  0
    5.5996   -5.7750    0.0000 C   0  0  0  0  0  0  0  0  0  0  0  0
    6.3141   -5.3625    0.0000 C   0  0  0  0  0  0  0  0  0  0  0  0
    6.3141   -4.5375    0.0000 C   0  0  0  0  0  0  0  0  0  0  0  0
    5.5996   -4.1250    0.0000 O   0  0  0  0  0  0  0  0  0  0  0  0
    7.0285   -5.7750    0.0000 O   0  0  0  0  0  0  0  0  0  0  0  0
    7.7430   -4.5375    0.0000 C   0  0  0  0  0  0  0  0  0  0  0  0
    7.0285   -4.1250    0.0000 C   0  0  0  0  0  0  0  0  0  0  0  0
    8.4575   -4.1250    0.0000 C   0  0  0  0  0  0  0  0  0  0  0  0
    8.4575   -3.3000    0.0000 C   0  0  0  0  0  0  0  0  0  0  0  0
    7.7430   -2.8875    0.0000 C   0  0  0  0  0  0  0  0  0  0  0  0
    7.0285   -3.3000    0.0000 C   0  0  0  0  0  0  0  0  0  0  0  0
    2.7417   -4.1250    0.0000 O   0  0  0  0  0  0  0  0  0  0  0  0
    4.1706   -6.6000    0.0000 O   0  0  0  0  0  0  0  0  0  0  0  0
    5.5996   -6.6000    0.0000 O   0  0  0  0  0  0  0  0  0  0  0  0
    9.1719   -2.8875    0.0000 O   0  0  0  0  0  0  0  0  0  0  0  0
    7.0263   -6.6178    0.0000 C   0  0  2  0  0  0  0  0  0  0  0  0
    6.3118   -7.0302    0.0000 O   0  0  0  0  0  0  0  0  0  0  0  0
    6.3116   -7.8552    0.0000 C   0  0  2  0  0  0  0  0  0  0  0  0
    7.0260   -8.2678    0.0000 C   0  0  1  0  0  0  0  0  0  0  0  0
    7.7406   -7.8555    0.0000 C   0  0  2  0  0  0  0  0  0  0  0  0
    7.7407   -7.0305    0.0000 C   0  0  1  0  0  0  0  0  0  0  0  0
    7.0258   -9.0928    0.0000 O   0  0  0  0  0  0  0  0  0  0  0  0
    5.5971   -8.2676    0.0000 C   0  0  0  0  0  0  0  0  0  0  0  0
    8.4549   -8.2681    0.0000 O   0  0  0  0  0  0  0  0  0  0  0  0
    8.4553   -6.6181    0.0000 O   0  0  0  0  0  0  0  0  0  0  0  0
    9.1697   -7.0308    0.0000 C   0  0  2  0  0  0  0  0  0  0  0  0
    9.1695   -7.8558    0.0000 O   0  0  0  0  0  0  0  0  0  0  0  0
    9.8839   -8.2684    0.0000 C   0  0  1  0  0  0  0  0  0  0  0  0
   10.5984   -7.8561    0.0000 C   0  0  2  0  0  0  0  0  0  0  0  0
   10.5986   -7.0311    0.0000 C   0  0  1  0  0  0  0  0  0  0  0  0
    9.8842   -6.6184    0.0000 C   0  0  1  0  0  0  0  0  0  0  0  0
    9.8837   -9.0934    0.0000 C   0  0  0  0  0  0  0  0  0  0  0  0
   11.3132   -6.6187    0.0000 O   0  0  0  0  0  0  0  0  0  0  0  0
    9.1692   -9.5058    0.0000 O   0  0  0  0  0  0  0  0  0  0  0  0
    9.1690  -10.3308    0.0000 C   0  0  0  0  0  0  0  0  0  0  0  0
    8.4544  -10.7431    0.0000 C   0  0  0  0  0  0  0  0  0  0  0  0
    9.8834  -10.7434    0.0000 O   0  0  0  0  0  0  0  0  0  0  0  0
    8.4543  -11.5681    0.0000 C   0  0  0  0  0  0  0  0  0  0  0  0
    7.7397  -11.9805    0.0000 C   0  0  0  0  0  0  0  0  0  0  0  0
    7.0253  -11.5678    0.0000 C   0  0  0  0  0  0  0  0  0  0  0  0
    6.3108  -11.9802    0.0000 C   0  0  0  0  0  0  0  0  0  0  0  0
    6.3106  -12.8052    0.0000 C   0  0  0  0  0  0  0  0  0  0  0  0
    7.0250  -13.2178    0.0000 C   0  0  0  0  0  0  0  0  0  0  0  0
    7.7395  -12.8055    0.0000 C   0  0  0  0  0  0  0  0  0  0  0  0
    5.5960  -13.2176    0.0000 O   0  0  0  0  0  0  0  0  0  0  0  0
   11.3128   -8.2687    0.0000 O   0  0  0  0  0  0  0  0  0  0  0  0
    9.8844   -5.7934    0.0000 O   0  0  0  0  0  0  0  0  0  0  0  0
    7.0248  -14.0428    0.0000 O   0  0  0  0  0  0  0  0  0  0  0  0
  1  2  2  0  0  0  0
  2  3  1  0  0  0  0
  3  4  2  0  0  0  0
  4  5  1  0  0  0  0
  5  6  2  0  0  0  0
  6  1  1  0  0  0  0
  4  7  1  0  0  0  0
  7  8  1  0  0  0  0
  8  9  2  0  0  0  0
  9 10  1  0  0  0  0
 10  5  1  0  0  0  0
  8 11  1  0  0  0  0
 12 13  2  0  0  0  0
 13  9  1  0  0  0  0
 12 14  1  0  0  0  0
 14 15  2  0  0  0  0
 15 16  1  0  0  0  0
 16 17  2  0  0  0  0
 17 13  1  0  0  0  0
  1 18  1  0  0  0  0
  3 19  1  0  0  0  0
  7 20  2  0  0  0  0
 15 21  1  0  0  0  0
 22 23  1  0  0  0  0
 23 24  1  0  0  0  0
 24 25  1  0  0  0  0
 25 26  1  0  0  0  0
 26 27  1  0  0  0  0
 27 22  1  0  0  0  0
 25 28  1  1  0  0  0
 24 29  1  6  0  0  0
 26 30  1  6  0  0  0
 27 31  1  6  0  0  0
 32 31  1  1  0  0  0
 32 33  1  0  0  0  0
 33 34  1  0  0  0  0
 34 35  1  0  0  0  0
 35 36  1  0  0  0  0
 36 37  1  0  0  0  0
 37 32  1  0  0  0  0
 34 38  1  1  0  0  0
 36 39  1  1  0  0  0
 38 40  1  0  0  0  0
 40 41  1  0  0  0  0
 41 42  1  0  0  0  0
 41 43  2  0  0  0  0
 42 44  2  0  0  0  0
 44 45  1  0  0  0  0
 45 46  2  0  0  0  0
 46 47  1  0  0  0  0
 47 48  2  0  0  0  0
 48 49  1  0  0  0  0
 49 50  2  0  0  0  0
 50 45  1  0  0  0  0
 48 51  1  0  0  0  0
 35 52  1  6  0  0  0
 37 53  1  6  0  0  0
 22 11  1  1  0  0  0
 49 54  1  0  0  0  0
M  END
>  <cdx:fragmentId>
228

$$$$
