97948.cdx
  Mrv1902 05222410262D          

 46 50  0  0  0  0            999 V2000
    3.6624   -7.5213    0.0000 C   0  0  0  0  0  0  0  0  0  0  0  0
    3.6624   -8.3462    0.0000 C   0  0  0  0  0  0  0  0  0  0  0  0
    4.3769   -8.7588    0.0000 C   0  0  0  0  0  0  0  0  0  0  0  0
    5.0914   -8.3462    0.0000 C   0  0  0  0  0  0  0  0  0  0  0  0
    5.0914   -7.5213    0.0000 C   0  0  0  0  0  0  0  0  0  0  0  0
    4.3769   -7.1088    0.0000 C   0  0  0  0  0  0  0  0  0  0  0  0
    5.8058   -8.7588    0.0000 C   0  0  0  0  0  0  0  0  0  0  0  0
    6.5203   -8.3462    0.0000 C   0  0  0  0  0  0  0  0  0  0  0  0
    6.5203   -7.5213    0.0000 C   0  0  0  0  0  0  0  0  0  0  0  0
    5.8058   -7.1088    0.0000 O   0  0  0  0  0  0  0  0  0  0  0  0
    7.2348   -8.7588    0.0000 O   0  0  0  0  0  0  0  0  0  0  0  0
    7.9493   -7.5213    0.0000 C   0  0  0  0  0  0  0  0  0  0  0  0
    7.2348   -7.1088    0.0000 C   0  0  0  0  0  0  0  0  0  0  0  0
    8.6637   -7.1088    0.0000 C   0  0  0  0  0  0  0  0  0  0  0  0
    8.6637   -6.2837    0.0000 C   0  0  0  0  0  0  0  0  0  0  0  0
    7.9493   -5.8712    0.0000 C   0  0  0  0  0  0  0  0  0  0  0  0
    7.2348   -6.2837    0.0000 C   0  0  0  0  0  0  0  0  0  0  0  0
    2.9480   -7.1088    0.0000 O   0  0  0  0  0  0  0  0  0  0  0  0
    4.3769   -9.5838    0.0000 O   0  0  0  0  0  0  0  0  0  0  0  0
    5.8058   -9.5838    0.0000 O   0  0  0  0  0  0  0  0  0  0  0  0
    9.3782   -5.8712    0.0000 O   0  0  0  0  0  0  0  0  0  0  0  0
    7.2326   -9.6016    0.0000 C   0  0  2  0  0  0  0  0  0  0  0  0
    6.5180  -10.0139    0.0000 O   0  0  0  0  0  0  0  0  0  0  0  0
    6.5179  -10.8389    0.0000 C   0  0  1  0  0  0  0  0  0  0  0  0
    7.2322  -11.2516    0.0000 C   0  0  2  0  0  0  0  0  0  0  0  0
    7.9468  -10.8392    0.0000 C   0  0  1  0  0  0  0  0  0  0  0  0
    7.9470  -10.0142    0.0000 C   0  0  1  0  0  0  0  0  0  0  0  0
    7.2321  -12.0766    0.0000 O   0  0  0  0  0  0  0  0  0  0  0  0
    5.8033  -11.2513    0.0000 C   0  0  0  0  0  0  0  0  0  0  0  0
    8.6612  -11.2519    0.0000 O   0  0  0  0  0  0  0  0  0  0  0  0
    8.6615   -9.6019    0.0000 O   0  0  0  0  0  0  0  0  0  0  0  0
    9.3759  -10.0145    0.0000 C   0  0  2  0  0  0  0  0  0  0  0  0
    9.3757  -10.8395    0.0000 O   0  0  0  0  0  0  0  0  0  0  0  0
   10.0901  -11.2522    0.0000 C   0  0  2  0  0  0  0  0  0  0  0  0
   10.8047  -10.8398    0.0000 C   0  0  1  0  0  0  0  0  0  0  0  0
   10.8049  -10.0148    0.0000 C   0  0  2  0  0  0  0  0  0  0  0  0
   10.0905   -9.6022    0.0000 C   0  0  1  0  0  0  0  0  0  0  0  0
   10.0900  -12.0772    0.0000 C   0  0  0  0  0  0  0  0  0  0  0  0
   11.5194   -9.6025    0.0000 O   0  0  0  0  0  0  0  0  0  0  0  0
   11.5191  -11.2525    0.0000 O   0  0  0  0  0  0  0  0  0  0  0  0
   10.0906   -8.7772    0.0000 O   0  0  0  0  0  0  0  0  0  0  0  0
    7.9493   -5.0462    0.0000 O   0  0  0  0  0  0  0  0  0  0  0  0
    8.6637   -4.6337    0.0000 C   0  0  0  0  0  0  0  0  0  0  0  0
    9.3782   -7.5213    0.0000 O   0  0  0  0  0  0  0  0  0  0  0  0
   10.0927   -7.1088    0.0000 C   0  0  0  0  0  0  0  0  0  0  0  0
    5.8033  -12.0763    0.0000 O   0  0  0  0  0  0  0  0  0  0  0  0
  1  2  2  0  0  0  0
  2  3  1  0  0  0  0
  3  4  2  0  0  0  0
  4  5  1  0  0  0  0
  5  6  2  0  0  0  0
  6  1  1  0  0  0  0
  4  7  1  0  0  0  0
  7  8  1  0  0  0  0
  8  9  2  0  0  0  0
  9 10  1  0  0  0  0
 10  5  1  0  0  0  0
  8 11  1  0  0  0  0
 12 13  2  0  0  0  0
 13  9  1  0  0  0  0
 12 14  1  0  0  0  0
 14 15  2  0  0  0  0
 15 16  1  0  0  0  0
 16 17  2  0  0  0  0
 17 13  1  0  0  0  0
  1 18  1  0  0  0  0
  3 19  1  0  0  0  0
  7 20  2  0  0  0  0
 15 21  1  0  0  0  0
 22 23  1  0  0  0  0
 23 24  1  0  0  0  0
 24 25  1  0  0  0  0
 25 26  1  0  0  0  0
 26 27  1  0  0  0  0
 27 22  1  0  0  0  0
 25 28  1  6  0  0  0
 24 29  1  1  0  0  0
 26 30  1  1  0  0  0
 27 31  1  6  0  0  0
 32 31  1  1  0  0  0
 32 33  1  0  0  0  0
 33 34  1  0  0  0  0
 34 35  1  0  0  0  0
 35 36  1  0  0  0  0
 36 37  1  0  0  0  0
 37 32  1  0  0  0  0
 34 38  1  6  0  0  0
 36 39  1  6  0  0  0
 35 40  1  1  0  0  0
 37 41  1  6  0  0  0
 22 11  1  1  0  0  0
 16 42  1  0  0  0  0
 42 43  1  0  0  0  0
 14 44  1  0  0  0  0
 44 45  1  0  0  0  0
 29 46  1  0  0  0  0
M  END
>  <cdx:fragmentId>
228

$$$$
