97940.cdx
  Mrv1902 05222410182D          

 56 61  0  0  0  0            999 V2000
    3.6212   -4.7988    0.0000 C   0  0  0  0  0  0  0  0  0  0  0  0
    3.6212   -5.6238    0.0000 C   0  0  0  0  0  0  0  0  0  0  0  0
    4.3356   -6.0362    0.0000 C   0  0  0  0  0  0  0  0  0  0  0  0
    5.0501   -5.6238    0.0000 C   0  0  0  0  0  0  0  0  0  0  0  0
    5.0501   -4.7988    0.0000 C   0  0  0  0  0  0  0  0  0  0  0  0
    4.3356   -4.3862    0.0000 C   0  0  0  0  0  0  0  0  0  0  0  0
    5.7646   -6.0362    0.0000 C   0  0  0  0  0  0  0  0  0  0  0  0
    6.4791   -5.6238    0.0000 C   0  0  0  0  0  0  0  0  0  0  0  0
    6.4791   -4.7988    0.0000 C   0  0  0  0  0  0  0  0  0  0  0  0
    5.7646   -4.3862    0.0000 O   0  0  0  0  0  0  0  0  0  0  0  0
    7.1935   -6.0362    0.0000 O   0  0  0  0  0  0  0  0  0  0  0  0
    7.9080   -4.7988    0.0000 C   0  0  0  0  0  0  0  0  0  0  0  0
    7.1935   -4.3862    0.0000 C   0  0  0  0  0  0  0  0  0  0  0  0
    8.6225   -4.3862    0.0000 C   0  0  0  0  0  0  0  0  0  0  0  0
    8.6225   -3.5612    0.0000 C   0  0  0  0  0  0  0  0  0  0  0  0
    7.9080   -3.1488    0.0000 C   0  0  0  0  0  0  0  0  0  0  0  0
    7.1935   -3.5612    0.0000 C   0  0  0  0  0  0  0  0  0  0  0  0
    2.9067   -4.3862    0.0000 O   0  0  0  0  0  0  0  0  0  0  0  0
    4.3356   -6.8613    0.0000 O   0  0  0  0  0  0  0  0  0  0  0  0
    5.7646   -6.8613    0.0000 O   0  0  0  0  0  0  0  0  0  0  0  0
    9.3369   -3.1488    0.0000 O   0  0  0  0  0  0  0  0  0  0  0  0
    7.1913   -6.8791    0.0000 C   0  0  2  0  0  0  0  0  0  0  0  0
    6.4768   -7.2914    0.0000 O   0  0  0  0  0  0  0  0  0  0  0  0
    6.4766   -8.1164    0.0000 C   0  0  2  0  0  0  0  0  0  0  0  0
    7.1910   -8.5291    0.0000 C   0  0  1  0  0  0  0  0  0  0  0  0
    7.9056   -8.1167    0.0000 C   0  0  2  0  0  0  0  0  0  0  0  0
    7.9057   -7.2917    0.0000 C   0  0  1  0  0  0  0  0  0  0  0  0
    7.1908   -9.3541    0.0000 O   0  0  0  0  0  0  0  0  0  0  0  0
    5.7621   -8.5288    0.0000 C   0  0  0  0  0  0  0  0  0  0  0  0
    8.6199   -8.5294    0.0000 O   0  0  0  0  0  0  0  0  0  0  0  0
    8.6203   -6.8794    0.0000 O   0  0  0  0  0  0  0  0  0  0  0  0
    9.3347   -7.2920    0.0000 C   0  0  2  0  0  0  0  0  0  0  0  0
    9.3345   -8.1170    0.0000 O   0  0  0  0  0  0  0  0  0  0  0  0
   10.0489   -8.5297    0.0000 C   0  0  1  0  0  0  0  0  0  0  0  0
   10.7634   -8.1173    0.0000 C   0  0  2  0  0  0  0  0  0  0  0  0
   10.7636   -7.2923    0.0000 C   0  0  1  0  0  0  0  0  0  0  0  0
   10.0492   -6.8797    0.0000 C   0  0  1  0  0  0  0  0  0  0  0  0
   10.0487   -9.3547    0.0000 C   0  0  0  0  0  0  0  0  0  0  0  0
   11.4782   -6.8800    0.0000 O   0  0  0  0  0  0  0  0  0  0  0  0
    9.3342   -9.7670    0.0000 O   0  0  0  0  0  0  0  0  0  0  0  0
   11.4778   -8.5300    0.0000 O   0  0  0  0  0  0  0  0  0  0  0  0
   10.0494   -6.0547    0.0000 O   0  0  0  0  0  0  0  0  0  0  0  0
    7.9080   -2.3238    0.0000 O   0  0  0  0  0  0  0  0  0  0  0  0
    9.3342  -10.5920    0.0000 C   0  0  0  0  0  0  0  0  0  0  0  0
    8.6197  -11.0045    0.0000 C   0  0  0  0  0  0  0  0  0  0  0  0
   10.0486  -11.0045    0.0000 O   0  0  0  0  0  0  0  0  0  0  0  0
    8.6197  -11.8295    0.0000 C   0  0  0  0  0  0  0  0  0  0  0  0
    7.9052  -12.2420    0.0000 C   0  0  0  0  0  0  0  0  0  0  0  0
    7.1907  -11.8295    0.0000 C   0  0  0  0  0  0  0  0  0  0  0  0
    6.4763  -12.2420    0.0000 C   0  0  0  0  0  0  0  0  0  0  0  0
    6.4763  -13.0670    0.0000 C   0  0  0  0  0  0  0  0  0  0  0  0
    7.1907  -13.4795    0.0000 C   0  0  0  0  0  0  0  0  0  0  0  0
    7.9052  -13.0670    0.0000 C   0  0  0  0  0  0  0  0  0  0  0  0
    5.7618  -13.4795    0.0000 O   0  0  0  0  0  0  0  0  0  0  0  0
    7.1907  -14.3045    0.0000 O   0  0  0  0  0  0  0  0  0  0  0  0
    7.9052  -14.7170    0.0000 C   0  0  0  0  0  0  0  0  0  0  0  0
  1  2  2  0  0  0  0
  2  3  1  0  0  0  0
  3  4  2  0  0  0  0
  4  5  1  0  0  0  0
  5  6  2  0  0  0  0
  6  1  1  0  0  0  0
  4  7  1  0  0  0  0
  7  8  1  0  0  0  0
  8  9  2  0  0  0  0
  9 10  1  0  0  0  0
 10  5  1  0  0  0  0
  8 11  1  0  0  0  0
 12 13  2  0  0  0  0
 13  9  1  0  0  0  0
 12 14  1  0  0  0  0
 14 15  2  0  0  0  0
 15 16  1  0  0  0  0
 16 17  2  0  0  0  0
 17 13  1  0  0  0  0
  1 18  1  0  0  0  0
  3 19  1  0  0  0  0
  7 20  2  0  0  0  0
 15 21  1  0  0  0  0
 22 23  1  0  0  0  0
 23 24  1  0  0  0  0
 24 25  1  0  0  0  0
 25 26  1  0  0  0  0
 26 27  1  0  0  0  0
 27 22  1  0  0  0  0
 25 28  1  1  0  0  0
 24 29  1  6  0  0  0
 26 30  1  6  0  0  0
 27 31  1  6  0  0  0
 32 31  1  1  0  0  0
 32 33  1  0  0  0  0
 33 34  1  0  0  0  0
 34 35  1  0  0  0  0
 35 36  1  0  0  0  0
 36 37  1  0  0  0  0
 37 32  1  0  0  0  0
 34 38  1  1  0  0  0
 36 39  1  1  0  0  0
 38 40  1  0  0  0  0
 35 41  1  6  0  0  0
 37 42  1  6  0  0  0
 22 11  1  1  0  0  0
 16 43  1  0  0  0  0
 40 44  1  0  0  0  0
 44 45  1  0  0  0  0
 44 46  2  0  0  0  0
 45 47  2  0  0  0  0
 47 48  1  0  0  0  0
 48 49  2  0  0  0  0
 49 50  1  0  0  0  0
 50 51  2  0  0  0  0
 51 52  1  0  0  0  0
 52 53  2  0  0  0  0
 53 48  1  0  0  0  0
 51 54  1  0  0  0  0
 52 55  1  0  0  0  0
 55 56  1  0  0  0  0
M  END
>  <cdx:fragmentId>
228

$$$$
