97944.cdx
  Mrv1902 05222410202D          

 65 71  0  0  0  0            999 V2000
    3.8412   -4.4000    0.0000 C   0  0  0  0  0  0  0  0  0  0  0  0
    3.8412   -5.2250    0.0000 C   0  0  0  0  0  0  0  0  0  0  0  0
    4.5556   -5.6375    0.0000 C   0  0  0  0  0  0  0  0  0  0  0  0
    5.2701   -5.2250    0.0000 C   0  0  0  0  0  0  0  0  0  0  0  0
    5.2701   -4.4000    0.0000 C   0  0  0  0  0  0  0  0  0  0  0  0
    4.5556   -3.9875    0.0000 C   0  0  0  0  0  0  0  0  0  0  0  0
    5.9846   -5.6375    0.0000 C   0  0  0  0  0  0  0  0  0  0  0  0
    6.6991   -5.2250    0.0000 C   0  0  0  0  0  0  0  0  0  0  0  0
    6.6991   -4.4000    0.0000 C   0  0  0  0  0  0  0  0  0  0  0  0
    5.9846   -3.9875    0.0000 O   0  0  0  0  0  0  0  0  0  0  0  0
    7.4135   -5.6375    0.0000 O   0  0  0  0  0  0  0  0  0  0  0  0
    8.1280   -4.4000    0.0000 C   0  0  0  0  0  0  0  0  0  0  0  0
    7.4135   -3.9875    0.0000 C   0  0  0  0  0  0  0  0  0  0  0  0
    8.8425   -3.9875    0.0000 C   0  0  0  0  0  0  0  0  0  0  0  0
    8.8425   -3.1625    0.0000 C   0  0  0  0  0  0  0  0  0  0  0  0
    8.1280   -2.7500    0.0000 C   0  0  0  0  0  0  0  0  0  0  0  0
    7.4135   -3.1625    0.0000 C   0  0  0  0  0  0  0  0  0  0  0  0
    3.1267   -3.9875    0.0000 O   0  0  0  0  0  0  0  0  0  0  0  0
    4.5556   -6.4625    0.0000 O   0  0  0  0  0  0  0  0  0  0  0  0
    5.9846   -6.4625    0.0000 O   0  0  0  0  0  0  0  0  0  0  0  0
    9.5569   -2.7500    0.0000 O   0  0  0  0  0  0  0  0  0  0  0  0
    7.4113   -6.4803    0.0000 C   0  0  2  0  0  0  0  0  0  0  0  0
    6.6968   -6.8927    0.0000 O   0  0  0  0  0  0  0  0  0  0  0  0
    6.6966   -7.7177    0.0000 C   0  0  1  0  0  0  0  0  0  0  0  0
    7.4110   -8.1303    0.0000 C   0  0  2  0  0  0  0  0  0  0  0  0
    8.1256   -7.7180    0.0000 C   0  0  1  0  0  0  0  0  0  0  0  0
    8.1257   -6.8930    0.0000 C   0  0  1  0  0  0  0  0  0  0  0  0
    7.4108   -8.9553    0.0000 O   0  0  0  0  0  0  0  0  0  0  0  0
    5.9821   -8.1301    0.0000 C   0  0  0  0  0  0  0  0  0  0  0  0
    8.8399   -8.1306    0.0000 O   0  0  0  0  0  0  0  0  0  0  0  0
    8.8403   -6.4806    0.0000 O   0  0  0  0  0  0  0  0  0  0  0  0
    9.5547   -6.8933    0.0000 C   0  0  2  0  0  0  0  0  0  0  0  0
    9.5545   -7.7183    0.0000 O   0  0  0  0  0  0  0  0  0  0  0  0
   10.2689   -8.1309    0.0000 C   0  0  1  0  0  0  0  0  0  0  0  0
   10.9834   -7.7186    0.0000 C   0  0  2  0  0  0  0  0  0  0  0  0
   10.9836   -6.8936    0.0000 C   0  0  1  0  0  0  0  0  0  0  0  0
   10.2692   -6.4809    0.0000 C   0  0  1  0  0  0  0  0  0  0  0  0
   10.2687   -8.9559    0.0000 C   0  0  0  0  0  0  0  0  0  0  0  0
   11.6982   -6.4812    0.0000 O   0  0  0  0  0  0  0  0  0  0  0  0
    9.5542   -9.3683    0.0000 O   0  0  0  0  0  0  0  0  0  0  0  0
   11.6978   -8.1312    0.0000 O   0  0  0  0  0  0  0  0  0  0  0  0
   10.2694   -5.6559    0.0000 O   0  0  0  0  0  0  0  0  0  0  0  0
    8.1280   -1.9250    0.0000 O   0  0  0  0  0  0  0  0  0  0  0  0
    9.5542  -10.1933    0.0000 C   0  0  0  0  0  0  0  0  0  0  0  0
    8.8397  -10.6058    0.0000 C   0  0  0  0  0  0  0  0  0  0  0  0
   10.2686  -10.6058    0.0000 O   0  0  0  0  0  0  0  0  0  0  0  0
    8.8397  -11.4308    0.0000 C   0  0  0  0  0  0  0  0  0  0  0  0
    8.1252  -11.8433    0.0000 C   0  0  0  0  0  0  0  0  0  0  0  0
    7.4107  -11.4308    0.0000 C   0  0  0  0  0  0  0  0  0  0  0  0
    6.6963  -11.8433    0.0000 C   0  0  0  0  0  0  0  0  0  0  0  0
    6.6963  -12.6683    0.0000 C   0  0  0  0  0  0  0  0  0  0  0  0
    7.4107  -13.0808    0.0000 C   0  0  0  0  0  0  0  0  0  0  0  0
    8.1252  -12.6683    0.0000 C   0  0  0  0  0  0  0  0  0  0  0  0
    5.9818  -13.0808    0.0000 O   0  0  0  0  0  0  0  0  0  0  0  0
    5.9821   -8.9551    0.0000 O   0  0  0  0  0  0  0  0  0  0  0  0
    5.2563   -9.3812    0.0000 C   0  0  2  0  0  0  0  0  0  0  0  0
    4.5418   -8.9687    0.0000 O   0  0  0  0  0  0  0  0  0  0  0  0
    3.8273   -9.3813    0.0000 C   0  0  2  0  0  0  0  0  0  0  0  0
    3.8274  -10.2063    0.0000 C   0  0  1  0  0  0  0  0  0  0  0  0
    4.5419  -10.6187    0.0000 C   0  0  2  0  0  0  0  0  0  0  0  0
    5.2563  -10.2062    0.0000 C   0  0  1  0  0  0  0  0  0  0  0  0
    3.1130  -10.6188    0.0000 O   0  0  0  0  0  0  0  0  0  0  0  0
    3.1129   -8.9688    0.0000 C   0  0  0  0  0  0  0  0  0  0  0  0
    4.5420  -11.4437    0.0000 O   0  0  0  0  0  0  0  0  0  0  0  0
    5.9708  -10.6186    0.0000 O   0  0  0  0  0  0  0  0  0  0  0  0
  1  2  2  0  0  0  0
  2  3  1  0  0  0  0
  3  4  2  0  0  0  0
  4  5  1  0  0  0  0
  5  6  2  0  0  0  0
  6  1  1  0  0  0  0
  4  7  1  0  0  0  0
  7  8  1  0  0  0  0
  8  9  2  0  0  0  0
  9 10  1  0  0  0  0
 10  5  1  0  0  0  0
  8 11  1  0  0  0  0
 12 13  2  0  0  0  0
 13  9  1  0  0  0  0
 12 14  1  0  0  0  0
 14 15  2  0  0  0  0
 15 16  1  0  0  0  0
 16 17  2  0  0  0  0
 17 13  1  0  0  0  0
  1 18  1  0  0  0  0
  3 19  1  0  0  0  0
  7 20  2  0  0  0  0
 15 21  1  0  0  0  0
 22 23  1  0  0  0  0
 23 24  1  0  0  0  0
 24 25  1  0  0  0  0
 25 26  1  0  0  0  0
 26 27  1  0  0  0  0
 27 22  1  0  0  0  0
 25 28  1  6  0  0  0
 24 29  1  1  0  0  0
 26 30  1  1  0  0  0
 27 31  1  6  0  0  0
 32 31  1  1  0  0  0
 32 33  1  0  0  0  0
 33 34  1  0  0  0  0
 34 35  1  0  0  0  0
 35 36  1  0  0  0  0
 36 37  1  0  0  0  0
 37 32  1  0  0  0  0
 34 38  1  1  0  0  0
 36 39  1  1  0  0  0
 38 40  1  0  0  0  0
 35 41  1  6  0  0  0
 37 42  1  6  0  0  0
 22 11  1  1  0  0  0
 16 43  1  0  0  0  0
 40 44  1  0  0  0  0
 44 45  1  0  0  0  0
 44 46  2  0  0  0  0
 45 47  2  0  0  0  0
 47 48  1  0  0  0  0
 48 49  2  0  0  0  0
 49 50  1  0  0  0  0
 50 51  2  0  0  0  0
 51 52  1  0  0  0  0
 52 53  2  0  0  0  0
 53 48  1  0  0  0  0
 51 54  1  0  0  0  0
 29 55  1  0  0  0  0
 56 57  1  0  0  0  0
 57 58  1  0  0  0  0
 58 59  1  0  0  0  0
 59 60  1  0  0  0  0
 60 61  1  0  0  0  0
 61 56  1  0  0  0  0
 59 62  1  1  0  0  0
 58 63  1  6  0  0  0
 60 64  1  6  0  0  0
 61 65  1  6  0  0  0
 56 55  1  1  0  0  0
M  END
>  <cdx:fragmentId>
228

$$$$
