97949.cdx
  Mrv1902 05222410262D          

 55 60  0  0  0  0            999 V2000
    3.6074   -4.7988    0.0000 C   0  0  0  0  0  0  0  0  0  0  0  0
    3.6074   -5.6238    0.0000 C   0  0  0  0  0  0  0  0  0  0  0  0
    4.3219   -6.0362    0.0000 C   0  0  0  0  0  0  0  0  0  0  0  0
    5.0364   -5.6238    0.0000 C   0  0  0  0  0  0  0  0  0  0  0  0
    5.0364   -4.7988    0.0000 C   0  0  0  0  0  0  0  0  0  0  0  0
    4.3219   -4.3862    0.0000 C   0  0  0  0  0  0  0  0  0  0  0  0
    5.7508   -6.0362    0.0000 C   0  0  0  0  0  0  0  0  0  0  0  0
    6.4653   -5.6238    0.0000 C   0  0  0  0  0  0  0  0  0  0  0  0
    6.4653   -4.7988    0.0000 C   0  0  0  0  0  0  0  0  0  0  0  0
    5.7508   -4.3862    0.0000 O   0  0  0  0  0  0  0  0  0  0  0  0
    7.1798   -6.0362    0.0000 O   0  0  0  0  0  0  0  0  0  0  0  0
    7.8943   -4.7988    0.0000 C   0  0  0  0  0  0  0  0  0  0  0  0
    7.1798   -4.3862    0.0000 C   0  0  0  0  0  0  0  0  0  0  0  0
    8.6087   -4.3862    0.0000 C   0  0  0  0  0  0  0  0  0  0  0  0
    8.6087   -3.5612    0.0000 C   0  0  0  0  0  0  0  0  0  0  0  0
    7.8943   -3.1488    0.0000 C   0  0  0  0  0  0  0  0  0  0  0  0
    7.1798   -3.5612    0.0000 C   0  0  0  0  0  0  0  0  0  0  0  0
    2.8930   -4.3862    0.0000 O   0  0  0  0  0  0  0  0  0  0  0  0
    4.3219   -6.8613    0.0000 O   0  0  0  0  0  0  0  0  0  0  0  0
    5.7508   -6.8613    0.0000 O   0  0  0  0  0  0  0  0  0  0  0  0
    9.3232   -3.1488    0.0000 O   0  0  0  0  0  0  0  0  0  0  0  0
    7.1776   -6.8791    0.0000 C   0  0  2  0  0  0  0  0  0  0  0  0
    6.4630   -7.2914    0.0000 O   0  0  0  0  0  0  0  0  0  0  0  0
    6.4629   -8.1164    0.0000 C   0  0  2  0  0  0  0  0  0  0  0  0
    7.1772   -8.5291    0.0000 C   0  0  1  0  0  0  0  0  0  0  0  0
    7.8918   -8.1167    0.0000 C   0  0  2  0  0  0  0  0  0  0  0  0
    7.8920   -7.2917    0.0000 C   0  0  1  0  0  0  0  0  0  0  0  0
    7.1771   -9.3541    0.0000 O   0  0  0  0  0  0  0  0  0  0  0  0
    5.7483   -8.5288    0.0000 C   0  0  0  0  0  0  0  0  0  0  0  0
    8.6062   -8.5294    0.0000 O   0  0  0  0  0  0  0  0  0  0  0  0
    8.6065   -6.8794    0.0000 O   0  0  0  0  0  0  0  0  0  0  0  0
    9.3209   -7.2920    0.0000 C   0  0  2  0  0  0  0  0  0  0  0  0
    9.3207   -8.1170    0.0000 O   0  0  0  0  0  0  0  0  0  0  0  0
   10.0351   -8.5297    0.0000 C   0  0  1  0  0  0  0  0  0  0  0  0
   10.7497   -8.1173    0.0000 C   0  0  2  0  0  0  0  0  0  0  0  0
   10.7499   -7.2923    0.0000 C   0  0  1  0  0  0  0  0  0  0  0  0
   10.0355   -6.8797    0.0000 C   0  0  1  0  0  0  0  0  0  0  0  0
   10.0350   -9.3547    0.0000 C   0  0  0  0  0  0  0  0  0  0  0  0
   11.4644   -6.8800    0.0000 O   0  0  0  0  0  0  0  0  0  0  0  0
    9.3204   -9.7670    0.0000 O   0  0  0  0  0  0  0  0  0  0  0  0
   11.4641   -8.5300    0.0000 O   0  0  0  0  0  0  0  0  0  0  0  0
   10.0356   -6.0547    0.0000 O   0  0  0  0  0  0  0  0  0  0  0  0
    7.8943   -2.3238    0.0000 O   0  0  0  0  0  0  0  0  0  0  0  0
    9.3204  -10.5920    0.0000 C   0  0  0  0  0  0  0  0  0  0  0  0
    8.6059  -11.0045    0.0000 C   0  0  0  0  0  0  0  0  0  0  0  0
   10.0349  -11.0045    0.0000 O   0  0  0  0  0  0  0  0  0  0  0  0
    8.6059  -11.8295    0.0000 C   0  0  0  0  0  0  0  0  0  0  0  0
    7.8915  -12.2420    0.0000 C   0  0  0  0  0  0  0  0  0  0  0  0
    7.1770  -11.8295    0.0000 C   0  0  0  0  0  0  0  0  0  0  0  0
    6.4625  -12.2420    0.0000 C   0  0  0  0  0  0  0  0  0  0  0  0
    6.4625  -13.0670    0.0000 C   0  0  0  0  0  0  0  0  0  0  0  0
    7.1770  -13.4795    0.0000 C   0  0  0  0  0  0  0  0  0  0  0  0
    7.8915  -13.0670    0.0000 C   0  0  0  0  0  0  0  0  0  0  0  0
    5.7481  -13.4795    0.0000 O   0  0  0  0  0  0  0  0  0  0  0  0
    9.3232   -4.7988    0.0000 O   0  0  0  0  0  0  0  0  0  0  0  0
  1  2  2  0  0  0  0
  2  3  1  0  0  0  0
  3  4  2  0  0  0  0
  4  5  1  0  0  0  0
  5  6  2  0  0  0  0
  6  1  1  0  0  0  0
  4  7  1  0  0  0  0
  7  8  1  0  0  0  0
  8  9  2  0  0  0  0
  9 10  1  0  0  0  0
 10  5  1  0  0  0  0
  8 11  1  0  0  0  0
 12 13  2  0  0  0  0
 13  9  1  0  0  0  0
 12 14  1  0  0  0  0
 14 15  2  0  0  0  0
 15 16  1  0  0  0  0
 16 17  2  0  0  0  0
 17 13  1  0  0  0  0
  1 18  1  0  0  0  0
  3 19  1  0  0  0  0
  7 20  2  0  0  0  0
 15 21  1  0  0  0  0
 22 23  1  0  0  0  0
 23 24  1  0  0  0  0
 24 25  1  0  0  0  0
 25 26  1  0  0  0  0
 26 27  1  0  0  0  0
 27 22  1  0  0  0  0
 25 28  1  1  0  0  0
 24 29  1  6  0  0  0
 26 30  1  6  0  0  0
 27 31  1  6  0  0  0
 32 31  1  1  0  0  0
 32 33  1  0  0  0  0
 33 34  1  0  0  0  0
 34 35  1  0  0  0  0
 35 36  1  0  0  0  0
 36 37  1  0  0  0  0
 37 32  1  0  0  0  0
 34 38  1  1  0  0  0
 36 39  1  1  0  0  0
 38 40  1  0  0  0  0
 35 41  1  6  0  0  0
 37 42  1  6  0  0  0
 22 11  1  1  0  0  0
 16 43  1  0  0  0  0
 40 44  1  0  0  0  0
 44 45  1  0  0  0  0
 44 46  2  0  0  0  0
 45 47  2  0  0  0  0
 47 48  1  0  0  0  0
 48 49  2  0  0  0  0
 49 50  1  0  0  0  0
 50 51  2  0  0  0  0
 51 52  1  0  0  0  0
 52 53  2  0  0  0  0
 53 48  1  0  0  0  0
 51 54  1  0  0  0  0
 14 55  1  0  0  0  0
M  END
>  <cdx:fragmentId>
228

$$$$
