97946.cdx
  Mrv1902 05222410192D          

 54 59  0  0  0  0            999 V2000
    3.8687   -5.5550    0.0000 C   0  0  0  0  0  0  0  0  0  0  0  0
    3.8687   -6.3800    0.0000 C   0  0  0  0  0  0  0  0  0  0  0  0
    4.5831   -6.7925    0.0000 C   0  0  0  0  0  0  0  0  0  0  0  0
    5.2976   -6.3800    0.0000 C   0  0  0  0  0  0  0  0  0  0  0  0
    5.2976   -5.5550    0.0000 C   0  0  0  0  0  0  0  0  0  0  0  0
    4.5831   -5.1425    0.0000 C   0  0  0  0  0  0  0  0  0  0  0  0
    6.0121   -6.7925    0.0000 C   0  0  0  0  0  0  0  0  0  0  0  0
    6.7266   -6.3800    0.0000 C   0  0  0  0  0  0  0  0  0  0  0  0
    6.7266   -5.5550    0.0000 C   0  0  0  0  0  0  0  0  0  0  0  0
    6.0121   -5.1425    0.0000 O   0  0  0  0  0  0  0  0  0  0  0  0
    7.4410   -6.7925    0.0000 O   0  0  0  0  0  0  0  0  0  0  0  0
    8.1555   -5.5550    0.0000 C   0  0  0  0  0  0  0  0  0  0  0  0
    7.4410   -5.1425    0.0000 C   0  0  0  0  0  0  0  0  0  0  0  0
    8.8700   -5.1425    0.0000 C   0  0  0  0  0  0  0  0  0  0  0  0
    8.8700   -4.3175    0.0000 C   0  0  0  0  0  0  0  0  0  0  0  0
    8.1555   -3.9050    0.0000 C   0  0  0  0  0  0  0  0  0  0  0  0
    7.4410   -4.3175    0.0000 C   0  0  0  0  0  0  0  0  0  0  0  0
    3.1542   -5.1425    0.0000 O   0  0  0  0  0  0  0  0  0  0  0  0
    4.5831   -7.6175    0.0000 O   0  0  0  0  0  0  0  0  0  0  0  0
    6.0121   -7.6175    0.0000 O   0  0  0  0  0  0  0  0  0  0  0  0
    9.5844   -3.9050    0.0000 O   0  0  0  0  0  0  0  0  0  0  0  0
    7.4388   -7.6353    0.0000 C   0  0  2  0  0  0  0  0  0  0  0  0
    6.7243   -8.0477    0.0000 O   0  0  0  0  0  0  0  0  0  0  0  0
    6.7241   -8.8727    0.0000 C   0  0  1  0  0  0  0  0  0  0  0  0
    7.4385   -9.2853    0.0000 C   0  0  2  0  0  0  0  0  0  0  0  0
    8.1531   -8.8730    0.0000 C   0  0  1  0  0  0  0  0  0  0  0  0
    8.1532   -8.0480    0.0000 C   0  0  1  0  0  0  0  0  0  0  0  0
    7.4383  -10.1103    0.0000 O   0  0  0  0  0  0  0  0  0  0  0  0
    6.0096   -9.2851    0.0000 C   0  0  0  0  0  0  0  0  0  0  0  0
    8.8674   -9.2856    0.0000 O   0  0  0  0  0  0  0  0  0  0  0  0
    8.8678   -7.6356    0.0000 O   0  0  0  0  0  0  0  0  0  0  0  0
    8.1555   -3.0800    0.0000 O   0  0  0  0  0  0  0  0  0  0  0  0
    8.8700   -2.6675    0.0000 C   0  0  0  0  0  0  0  0  0  0  0  0
    6.0148  -10.1149    0.0000 O   0  0  0  0  0  0  0  0  0  0  0  0
    5.2845  -10.5358    0.0000 C   0  0  2  0  0  0  0  0  0  0  0  0
    4.5694  -10.1244    0.0000 O   0  0  0  0  0  0  0  0  0  0  0  0
    3.8556  -10.5380    0.0000 C   0  0  2  0  0  0  0  0  0  0  0  0
    3.8569  -11.3630    0.0000 C   0  0  1  0  0  0  0  0  0  0  0  0
    4.5720  -11.7744    0.0000 C   0  0  2  0  0  0  0  0  0  0  0  0
    5.2859  -11.3608    0.0000 C   0  0  1  0  0  0  0  0  0  0  0  0
    3.1431  -11.7767    0.0000 O   0  0  0  0  0  0  0  0  0  0  0  0
    3.1405  -10.1267    0.0000 C   0  0  0  0  0  0  0  0  0  0  0  0
    4.5734  -12.5994    0.0000 O   0  0  0  0  0  0  0  0  0  0  0  0
    6.0010  -11.7721    0.0000 O   0  0  0  0  0  0  0  0  0  0  0  0
    9.5931   -8.0558    0.0000 C   0  0  2  0  0  0  0  0  0  0  0  0
    9.5919   -8.8808    0.0000 O   0  0  0  0  0  0  0  0  0  0  0  0
   10.3057   -9.2943    0.0000 C   0  0  2  0  0  0  0  0  0  0  0  0
   11.0208   -8.8829    0.0000 C   0  0  1  0  0  0  0  0  0  0  0  0
   11.0221   -8.0579    0.0000 C   0  0  2  0  0  0  0  0  0  0  0  0
   10.3082   -7.6443    0.0000 C   0  0  1  0  0  0  0  0  0  0  0  0
   11.7347   -9.2965    0.0000 O   0  0  0  0  0  0  0  0  0  0  0  0
   10.3045  -10.1193    0.0000 C   0  0  0  0  0  0  0  0  0  0  0  0
   11.7372   -7.6465    0.0000 O   0  0  0  0  0  0  0  0  0  0  0  0
   10.3095   -6.8193    0.0000 O   0  0  0  0  0  0  0  0  0  0  0  0
  1  2  2  0  0  0  0
  2  3  1  0  0  0  0
  3  4  2  0  0  0  0
  4  5  1  0  0  0  0
  5  6  2  0  0  0  0
  6  1  1  0  0  0  0
  4  7  1  0  0  0  0
  7  8  1  0  0  0  0
  8  9  2  0  0  0  0
  9 10  1  0  0  0  0
 10  5  1  0  0  0  0
  8 11  1  0  0  0  0
 12 13  2  0  0  0  0
 13  9  1  0  0  0  0
 12 14  1  0  0  0  0
 14 15  2  0  0  0  0
 15 16  1  0  0  0  0
 16 17  2  0  0  0  0
 17 13  1  0  0  0  0
  1 18  1  0  0  0  0
  3 19  1  0  0  0  0
  7 20  2  0  0  0  0
 15 21  1  0  0  0  0
 22 23  1  0  0  0  0
 23 24  1  0  0  0  0
 24 25  1  0  0  0  0
 25 26  1  0  0  0  0
 26 27  1  0  0  0  0
 27 22  1  0  0  0  0
 25 28  1  6  0  0  0
 24 29  1  1  0  0  0
 26 30  1  1  0  0  0
 27 31  1  6  0  0  0
 22 11  1  1  0  0  0
 16 32  1  0  0  0  0
 32 33  1  0  0  0  0
 35 36  1  0  0  0  0
 36 37  1  0  0  0  0
 37 38  1  0  0  0  0
 38 39  1  0  0  0  0
 39 40  1  0  0  0  0
 40 35  1  0  0  0  0
 38 41  1  1  0  0  0
 37 42  1  6  0  0  0
 39 43  1  6  0  0  0
 40 44  1  6  0  0  0
 35 34  1  1  0  0  0
 45 46  1  0  0  0  0
 46 47  1  0  0  0  0
 47 48  1  0  0  0  0
 48 49  1  0  0  0  0
 49 50  1  0  0  0  0
 50 45  1  0  0  0  0
 48 51  1  1  0  0  0
 47 52  1  6  0  0  0
 49 53  1  6  0  0  0
 50 54  1  6  0  0  0
 29 34  1  0  0  0  0
 45 31  1  1  0  0  0
M  END
>  <cdx:fragmentId>
228

$$$$
