97941.cdx
  Mrv1902 05222410182D          

 65 71  0  0  0  0            999 V2000
    5.0374   -5.3763    0.0000 C   0  0  0  0  0  0  0  0  0  0  0  0
    5.0374   -6.2012    0.0000 C   0  0  0  0  0  0  0  0  0  0  0  0
    5.7519   -6.6137    0.0000 C   0  0  0  0  0  0  0  0  0  0  0  0
    6.4664   -6.2012    0.0000 C   0  0  0  0  0  0  0  0  0  0  0  0
    6.4664   -5.3763    0.0000 C   0  0  0  0  0  0  0  0  0  0  0  0
    5.7519   -4.9637    0.0000 C   0  0  0  0  0  0  0  0  0  0  0  0
    7.1808   -6.6137    0.0000 C   0  0  0  0  0  0  0  0  0  0  0  0
    7.8953   -6.2012    0.0000 C   0  0  0  0  0  0  0  0  0  0  0  0
    7.8953   -5.3763    0.0000 C   0  0  0  0  0  0  0  0  0  0  0  0
    7.1808   -4.9637    0.0000 O   0  0  0  0  0  0  0  0  0  0  0  0
    8.6098   -6.6137    0.0000 O   0  0  0  0  0  0  0  0  0  0  0  0
    9.3243   -5.3763    0.0000 C   0  0  0  0  0  0  0  0  0  0  0  0
    8.6098   -4.9637    0.0000 C   0  0  0  0  0  0  0  0  0  0  0  0
   10.0387   -4.9637    0.0000 C   0  0  0  0  0  0  0  0  0  0  0  0
   10.0387   -4.1387    0.0000 C   0  0  0  0  0  0  0  0  0  0  0  0
    9.3243   -3.7262    0.0000 C   0  0  0  0  0  0  0  0  0  0  0  0
    8.6098   -4.1387    0.0000 C   0  0  0  0  0  0  0  0  0  0  0  0
    4.3230   -4.9637    0.0000 O   0  0  0  0  0  0  0  0  0  0  0  0
    5.7519   -7.4387    0.0000 O   0  0  0  0  0  0  0  0  0  0  0  0
    7.1808   -7.4387    0.0000 O   0  0  0  0  0  0  0  0  0  0  0  0
   10.7532   -3.7262    0.0000 O   0  0  0  0  0  0  0  0  0  0  0  0
    8.6076   -7.4566    0.0000 C   0  0  2  0  0  0  0  0  0  0  0  0
    7.8930   -7.8689    0.0000 O   0  0  0  0  0  0  0  0  0  0  0  0
    7.8929   -8.6939    0.0000 C   0  0  2  0  0  0  0  0  0  0  0  0
    8.6072   -9.1066    0.0000 C   0  0  1  0  0  0  0  0  0  0  0  0
    9.3218   -8.6942    0.0000 C   0  0  2  0  0  0  0  0  0  0  0  0
    9.3220   -7.8692    0.0000 C   0  0  1  0  0  0  0  0  0  0  0  0
    8.6071   -9.9316    0.0000 O   0  0  0  0  0  0  0  0  0  0  0  0
    7.1783   -9.1063    0.0000 C   0  0  0  0  0  0  0  0  0  0  0  0
   10.0362   -9.1069    0.0000 O   0  0  0  0  0  0  0  0  0  0  0  0
   10.0365   -7.4569    0.0000 O   0  0  0  0  0  0  0  0  0  0  0  0
   10.7509   -7.8695    0.0000 C   0  0  2  0  0  0  0  0  0  0  0  0
   10.7507   -8.6945    0.0000 O   0  0  0  0  0  0  0  0  0  0  0  0
   11.4651   -9.1072    0.0000 C   0  0  1  0  0  0  0  0  0  0  0  0
   12.1797   -8.6948    0.0000 C   0  0  2  0  0  0  0  0  0  0  0  0
   12.1799   -7.8698    0.0000 C   0  0  1  0  0  0  0  0  0  0  0  0
   11.4655   -7.4572    0.0000 C   0  0  1  0  0  0  0  0  0  0  0  0
   11.4650   -9.9322    0.0000 C   0  0  0  0  0  0  0  0  0  0  0  0
   12.8944   -7.4575    0.0000 O   0  0  0  0  0  0  0  0  0  0  0  0
   10.7504  -10.3445    0.0000 O   0  0  0  0  0  0  0  0  0  0  0  0
   12.8941   -9.1075    0.0000 O   0  0  0  0  0  0  0  0  0  0  0  0
   11.4656   -6.6322    0.0000 O   0  0  0  0  0  0  0  0  0  0  0  0
    9.3243   -2.9013    0.0000 O   0  0  0  0  0  0  0  0  0  0  0  0
   10.7504  -11.1695    0.0000 C   0  0  0  0  0  0  0  0  0  0  0  0
   10.0359  -11.5820    0.0000 C   0  0  0  0  0  0  0  0  0  0  0  0
   11.4649  -11.5820    0.0000 O   0  0  0  0  0  0  0  0  0  0  0  0
   10.0359  -12.4070    0.0000 C   0  0  0  0  0  0  0  0  0  0  0  0
    9.3215  -12.8195    0.0000 C   0  0  0  0  0  0  0  0  0  0  0  0
    8.6070  -12.4070    0.0000 C   0  0  0  0  0  0  0  0  0  0  0  0
    7.8925  -12.8195    0.0000 C   0  0  0  0  0  0  0  0  0  0  0  0
    7.8925  -13.6445    0.0000 C   0  0  0  0  0  0  0  0  0  0  0  0
    8.6070  -14.0570    0.0000 C   0  0  0  0  0  0  0  0  0  0  0  0
    9.3215  -13.6445    0.0000 C   0  0  0  0  0  0  0  0  0  0  0  0
    7.1781  -14.0570    0.0000 O   0  0  0  0  0  0  0  0  0  0  0  0
    3.6075   -5.3618    0.0000 C   0  0  2  0  0  0  0  0  0  0  0  0
    2.8932   -4.9490    0.0000 O   0  0  0  0  0  0  0  0  0  0  0  0
    2.1785   -5.3612    0.0000 C   0  0  1  0  0  0  0  0  0  0  0  0
    2.1782   -6.1862    0.0000 C   0  0  2  0  0  0  0  0  0  0  0  0
    2.8925   -6.5990    0.0000 C   0  0  1  0  0  0  0  0  0  0  0  0
    3.6072   -6.1868    0.0000 C   0  0  1  0  0  0  0  0  0  0  0  0
    1.4642   -4.9485    0.0000 C   0  0  0  0  0  0  0  0  0  0  0  0
    2.8922   -7.4240    0.0000 O   0  0  0  0  0  0  0  0  0  0  0  0
    1.4636   -6.5985    0.0000 O   0  0  0  0  0  0  0  0  0  0  0  0
    4.3215   -6.5995    0.0000 O   0  0  0  0  0  0  0  0  0  0  0  0
    0.7496   -5.3607    0.0000 O   0  0  0  0  0  0  0  0  0  0  0  0
  1  2  2  0  0  0  0
  2  3  1  0  0  0  0
  3  4  2  0  0  0  0
  4  5  1  0  0  0  0
  5  6  2  0  0  0  0
  6  1  1  0  0  0  0
  4  7  1  0  0  0  0
  7  8  1  0  0  0  0
  8  9  2  0  0  0  0
  9 10  1  0  0  0  0
 10  5  1  0  0  0  0
  8 11  1  0  0  0  0
 12 13  2  0  0  0  0
 13  9  1  0  0  0  0
 12 14  1  0  0  0  0
 14 15  2  0  0  0  0
 15 16  1  0  0  0  0
 16 17  2  0  0  0  0
 17 13  1  0  0  0  0
  1 18  1  0  0  0  0
  3 19  1  0  0  0  0
  7 20  2  0  0  0  0
 15 21  1  0  0  0  0
 22 23  1  0  0  0  0
 23 24  1  0  0  0  0
 24 25  1  0  0  0  0
 25 26  1  0  0  0  0
 26 27  1  0  0  0  0
 27 22  1  0  0  0  0
 25 28  1  1  0  0  0
 24 29  1  6  0  0  0
 26 30  1  6  0  0  0
 27 31  1  6  0  0  0
 32 31  1  1  0  0  0
 32 33  1  0  0  0  0
 33 34  1  0  0  0  0
 34 35  1  0  0  0  0
 35 36  1  0  0  0  0
 36 37  1  0  0  0  0
 37 32  1  0  0  0  0
 34 38  1  1  0  0  0
 36 39  1  1  0  0  0
 38 40  1  0  0  0  0
 35 41  1  6  0  0  0
 37 42  1  6  0  0  0
 22 11  1  1  0  0  0
 16 43  1  0  0  0  0
 40 44  1  0  0  0  0
 44 45  1  0  0  0  0
 44 46  2  0  0  0  0
 45 47  2  0  0  0  0
 47 48  1  0  0  0  0
 48 49  2  0  0  0  0
 49 50  1  0  0  0  0
 50 51  2  0  0  0  0
 51 52  1  0  0  0  0
 52 53  2  0  0  0  0
 53 48  1  0  0  0  0
 51 54  1  0  0  0  0
 55 56  1  0  0  0  0
 56 57  1  0  0  0  0
 57 58  1  0  0  0  0
 58 59  1  0  0  0  0
 59 60  1  0  0  0  0
 60 55  1  0  0  0  0
 57 61  1  1  0  0  0
 59 62  1  1  0  0  0
 58 63  1  6  0  0  0
 60 64  1  6  0  0  0
 55 18  1  1  0  0  0
 61 65  1  0  0  0  0
M  END
>  <cdx:fragmentId>
228

$$$$
