97942.cdx
  Mrv1902 05222410192D          

 65 71  0  0  0  0            999 V2000
    4.0062   -4.8400    0.0000 C   0  0  0  0  0  0  0  0  0  0  0  0
    4.0062   -5.6650    0.0000 C   0  0  0  0  0  0  0  0  0  0  0  0
    4.7206   -6.0775    0.0000 C   0  0  0  0  0  0  0  0  0  0  0  0
    5.4351   -5.6650    0.0000 C   0  0  0  0  0  0  0  0  0  0  0  0
    5.4351   -4.8400    0.0000 C   0  0  0  0  0  0  0  0  0  0  0  0
    4.7206   -4.4275    0.0000 C   0  0  0  0  0  0  0  0  0  0  0  0
    6.1496   -6.0775    0.0000 C   0  0  0  0  0  0  0  0  0  0  0  0
    6.8641   -5.6650    0.0000 C   0  0  0  0  0  0  0  0  0  0  0  0
    6.8641   -4.8400    0.0000 C   0  0  0  0  0  0  0  0  0  0  0  0
    6.1496   -4.4275    0.0000 O   0  0  0  0  0  0  0  0  0  0  0  0
    7.5785   -6.0775    0.0000 O   0  0  0  0  0  0  0  0  0  0  0  0
    8.2930   -4.8400    0.0000 C   0  0  0  0  0  0  0  0  0  0  0  0
    7.5785   -4.4275    0.0000 C   0  0  0  0  0  0  0  0  0  0  0  0
    9.0075   -4.4275    0.0000 C   0  0  0  0  0  0  0  0  0  0  0  0
    9.0075   -3.6025    0.0000 C   0  0  0  0  0  0  0  0  0  0  0  0
    8.2930   -3.1900    0.0000 C   0  0  0  0  0  0  0  0  0  0  0  0
    7.5785   -3.6025    0.0000 C   0  0  0  0  0  0  0  0  0  0  0  0
    3.2917   -4.4275    0.0000 O   0  0  0  0  0  0  0  0  0  0  0  0
    4.7206   -6.9025    0.0000 O   0  0  0  0  0  0  0  0  0  0  0  0
    6.1496   -6.9025    0.0000 O   0  0  0  0  0  0  0  0  0  0  0  0
    9.7219   -3.1900    0.0000 O   0  0  0  0  0  0  0  0  0  0  0  0
    7.5763   -6.9203    0.0000 C   0  0  2  0  0  0  0  0  0  0  0  0
    6.8618   -7.3327    0.0000 O   0  0  0  0  0  0  0  0  0  0  0  0
    6.8616   -8.1577    0.0000 C   0  0  2  0  0  0  0  0  0  0  0  0
    7.5760   -8.5703    0.0000 C   0  0  1  0  0  0  0  0  0  0  0  0
    8.2906   -8.1580    0.0000 C   0  0  2  0  0  0  0  0  0  0  0  0
    8.2907   -7.3330    0.0000 C   0  0  1  0  0  0  0  0  0  0  0  0
    7.5758   -9.3953    0.0000 O   0  0  0  0  0  0  0  0  0  0  0  0
    6.1471   -8.5701    0.0000 C   0  0  0  0  0  0  0  0  0  0  0  0
    9.0049   -8.5706    0.0000 O   0  0  0  0  0  0  0  0  0  0  0  0
    9.0053   -6.9206    0.0000 O   0  0  0  0  0  0  0  0  0  0  0  0
    9.7197   -7.3333    0.0000 C   0  0  2  0  0  0  0  0  0  0  0  0
    9.7195   -8.1583    0.0000 O   0  0  0  0  0  0  0  0  0  0  0  0
   10.4339   -8.5709    0.0000 C   0  0  1  0  0  0  0  0  0  0  0  0
   11.1484   -8.1586    0.0000 C   0  0  2  0  0  0  0  0  0  0  0  0
   11.1486   -7.3336    0.0000 C   0  0  1  0  0  0  0  0  0  0  0  0
   10.4342   -6.9209    0.0000 C   0  0  1  0  0  0  0  0  0  0  0  0
   10.4337   -9.3959    0.0000 C   0  0  0  0  0  0  0  0  0  0  0  0
   11.8632   -6.9212    0.0000 O   0  0  0  0  0  0  0  0  0  0  0  0
    9.7192   -9.8083    0.0000 O   0  0  0  0  0  0  0  0  0  0  0  0
   11.8628   -8.5712    0.0000 O   0  0  0  0  0  0  0  0  0  0  0  0
   10.4344   -6.0959    0.0000 O   0  0  0  0  0  0  0  0  0  0  0  0
    8.2930   -2.3650    0.0000 O   0  0  0  0  0  0  0  0  0  0  0  0
    9.7192  -10.6333    0.0000 C   0  0  0  0  0  0  0  0  0  0  0  0
    9.0047  -11.0458    0.0000 C   0  0  0  0  0  0  0  0  0  0  0  0
   10.4336  -11.0458    0.0000 O   0  0  0  0  0  0  0  0  0  0  0  0
    9.0047  -11.8708    0.0000 C   0  0  0  0  0  0  0  0  0  0  0  0
    8.2902  -12.2833    0.0000 C   0  0  0  0  0  0  0  0  0  0  0  0
    7.5757  -11.8708    0.0000 C   0  0  0  0  0  0  0  0  0  0  0  0
    6.8613  -12.2833    0.0000 C   0  0  0  0  0  0  0  0  0  0  0  0
    6.8613  -13.1083    0.0000 C   0  0  0  0  0  0  0  0  0  0  0  0
    7.5757  -13.5208    0.0000 C   0  0  0  0  0  0  0  0  0  0  0  0
    8.2902  -13.1083    0.0000 C   0  0  0  0  0  0  0  0  0  0  0  0
    6.1468  -13.5208    0.0000 O   0  0  0  0  0  0  0  0  0  0  0  0
    5.4263  -13.1204    0.0000 C   0  0  2  0  0  0  0  0  0  0  0  0
    5.4240  -12.2954    0.0000 O   0  0  0  0  0  0  0  0  0  0  0  0
    4.7084  -11.8849    0.0000 C   0  0  1  0  0  0  0  0  0  0  0  0
    3.9951  -12.2994    0.0000 C   0  0  2  0  0  0  0  0  0  0  0  0
    3.9974  -13.1244    0.0000 C   0  0  1  0  0  0  0  0  0  0  0  0
    4.7130  -13.5349    0.0000 C   0  0  1  0  0  0  0  0  0  0  0  0
    4.7062  -11.0599    0.0000 C   0  0  0  0  0  0  0  0  0  0  0  0
    3.2840  -13.5388    0.0000 O   0  0  0  0  0  0  0  0  0  0  0  0
    3.9917  -10.6474    0.0000 O   0  0  0  0  0  0  0  0  0  0  0  0
    3.2795  -11.8888    0.0000 O   0  0  0  0  0  0  0  0  0  0  0  0
    4.7152  -14.3599    0.0000 O   0  0  0  0  0  0  0  0  0  0  0  0
  1  2  2  0  0  0  0
  2  3  1  0  0  0  0
  3  4  2  0  0  0  0
  4  5  1  0  0  0  0
  5  6  2  0  0  0  0
  6  1  1  0  0  0  0
  4  7  1  0  0  0  0
  7  8  1  0  0  0  0
  8  9  2  0  0  0  0
  9 10  1  0  0  0  0
 10  5  1  0  0  0  0
  8 11  1  0  0  0  0
 12 13  2  0  0  0  0
 13  9  1  0  0  0  0
 12 14  1  0  0  0  0
 14 15  2  0  0  0  0
 15 16  1  0  0  0  0
 16 17  2  0  0  0  0
 17 13  1  0  0  0  0
  1 18  1  0  0  0  0
  3 19  1  0  0  0  0
  7 20  2  0  0  0  0
 15 21  1  0  0  0  0
 22 23  1  0  0  0  0
 23 24  1  0  0  0  0
 24 25  1  0  0  0  0
 25 26  1  0  0  0  0
 26 27  1  0  0  0  0
 27 22  1  0  0  0  0
 25 28  1  1  0  0  0
 24 29  1  6  0  0  0
 26 30  1  6  0  0  0
 27 31  1  6  0  0  0
 32 31  1  1  0  0  0
 32 33  1  0  0  0  0
 33 34  1  0  0  0  0
 34 35  1  0  0  0  0
 35 36  1  0  0  0  0
 36 37  1  0  0  0  0
 37 32  1  0  0  0  0
 34 38  1  1  0  0  0
 36 39  1  1  0  0  0
 38 40  1  0  0  0  0
 35 41  1  6  0  0  0
 37 42  1  6  0  0  0
 22 11  1  1  0  0  0
 16 43  1  0  0  0  0
 40 44  1  0  0  0  0
 44 45  1  0  0  0  0
 44 46  2  0  0  0  0
 45 47  2  0  0  0  0
 47 48  1  0  0  0  0
 48 49  2  0  0  0  0
 49 50  1  0  0  0  0
 50 51  2  0  0  0  0
 51 52  1  0  0  0  0
 52 53  2  0  0  0  0
 53 48  1  0  0  0  0
 51 54  1  0  0  0  0
 55 56  1  0  0  0  0
 56 57  1  0  0  0  0
 57 58  1  0  0  0  0
 58 59  1  0  0  0  0
 59 60  1  0  0  0  0
 60 55  1  0  0  0  0
 57 61  1  1  0  0  0
 59 62  1  1  0  0  0
 61 63  1  0  0  0  0
 58 64  1  6  0  0  0
 60 65  1  6  0  0  0
 55 54  1  1  0  0  0
M  END
>  <cdx:fragmentId>
228

$$$$
