97957.cdx
  Mrv1902 05222410182D          

 26 28  0  0  0  0            999 V2000
    3.1949   -8.0162    0.0000 C   0  0  0  0  0  0  0  0  0  0  0  0
    3.1949   -8.8413    0.0000 C   0  0  0  0  0  0  0  0  0  0  0  0
    3.9094   -9.2538    0.0000 C   0  0  0  0  0  0  0  0  0  0  0  0
    4.6239   -8.8413    0.0000 C   0  0  0  0  0  0  0  0  0  0  0  0
    4.6239   -8.0162    0.0000 C   0  0  0  0  0  0  0  0  0  0  0  0
    3.9094   -7.6037    0.0000 C   0  0  0  0  0  0  0  0  0  0  0  0
    5.3383   -9.2538    0.0000 O   0  0  0  0  0  0  0  0  0  0  0  0
    6.0528   -8.8413    0.0000 C   0  0  0  0  0  0  0  0  0  0  0  0
    6.0528   -8.0162    0.0000 C   0  0  0  0  0  0  0  0  0  0  0  0
    5.3383   -7.6037    0.0000 C   0  0  0  0  0  0  0  0  0  0  0  0
    6.7673   -9.2538    0.0000 C   0  0  0  0  0  0  0  0  0  0  0  0
    7.4818   -8.8413    0.0000 C   0  0  0  0  0  0  0  0  0  0  0  0
    7.4818   -8.0162    0.0000 C   0  0  0  0  0  0  0  0  0  0  0  0
    6.7673   -7.6037    0.0000 C   0  0  0  0  0  0  0  0  0  0  0  0
    8.1962   -9.2538    0.0000 O   0  0  0  0  0  0  0  0  0  0  0  0
    8.9107   -8.8413    0.0000 C   0  0  0  0  0  0  0  0  0  0  0  0
    8.9107   -8.0162    0.0000 C   0  0  0  0  0  0  0  0  0  0  0  0
    8.1962   -7.6037    0.0000 C   0  0  0  0  0  0  0  0  0  0  0  0
    9.6252   -9.2538    0.0000 C   0  0  0  0  0  0  0  0  0  0  0  0
   10.3396   -8.8413    0.0000 C   0  0  0  0  0  0  0  0  0  0  0  0
   10.3396   -8.0162    0.0000 C   0  0  0  0  0  0  0  0  0  0  0  0
    9.6252   -7.6037    0.0000 C   0  0  0  0  0  0  0  0  0  0  0  0
    2.4805   -9.2538    0.0000 O   0  0  0  0  0  0  0  0  0  0  0  0
   11.0541   -7.6037    0.0000 C   0  0  0  0  0  0  0  0  0  0  0  0
   11.7686   -8.0162    0.0000 O   0  0  0  0  0  0  0  0  0  0  0  0
   12.4831   -7.6037    0.0000 C   0  0  0  0  0  0  0  0  0  0  0  0
  1  2  2  0  0  0  0
  2  3  1  0  0  0  0
  3  4  2  0  0  0  0
  4  5  1  0  0  0  0
  5  6  2  0  0  0  0
  6  1  1  0  0  0  0
  7  8  1  0  0  0  0
  8  9  2  0  0  0  0
  9 10  1  0  0  0  0
 10  5  1  0  0  0  0
  8 11  1  0  0  0  0
 11 12  2  0  0  0  0
 12 13  1  0  0  0  0
 13 14  2  0  0  0  0
 14  9  1  0  0  0  0
 15 16  1  0  0  0  0
 16 17  2  0  0  0  0
 17 18  1  0  0  0  0
 18 13  1  0  0  0  0
 16 19  1  0  0  0  0
 19 20  2  0  0  0  0
 20 21  1  0  0  0  0
 21 22  2  0  0  0  0
 22 17  1  0  0  0  0
  2 23  1  0  0  0  0
 21 24  1  0  0  0  0
 24 25  1  0  0  0  0
 25 26  1  0  0  0  0
M  END
>  <cdx:fragmentId>
5

$$$$
