97953.cdx
  Mrv1902 05222410202D          

 21 22  0  0  0  0            999 V2000
    4.7487   -8.3325    0.0000 C   0  0  0  0  0  0  0  0  0  0  0  0
    4.7487   -9.1575    0.0000 C   0  0  0  0  0  0  0  0  0  0  0  0
    5.4631   -9.5700    0.0000 C   0  0  0  0  0  0  0  0  0  0  0  0
    6.1776   -9.1575    0.0000 C   0  0  0  0  0  0  0  0  0  0  0  0
    6.1776   -8.3325    0.0000 C   0  0  0  0  0  0  0  0  0  0  0  0
    5.4631   -7.9200    0.0000 C   0  0  0  0  0  0  0  0  0  0  0  0
    4.0342   -9.5700    0.0000 O   0  0  0  0  0  0  0  0  0  0  0  0
    6.8921   -7.9200    0.0000 C   0  0  0  0  0  0  0  0  0  0  0  0
    7.6066   -8.3325    0.0000 C   0  0  0  0  0  0  0  0  0  0  0  0
    7.6066   -9.1575    0.0000 C   0  0  0  0  0  0  0  0  0  0  0  0
    8.3210   -9.5700    0.0000 C   0  0  0  0  0  0  0  0  0  0  0  0
    9.0355   -9.1575    0.0000 C   0  0  0  0  0  0  0  0  0  0  0  0
    9.0355   -8.3325    0.0000 C   0  0  0  0  0  0  0  0  0  0  0  0
    8.3210   -7.9200    0.0000 C   0  0  0  0  0  0  0  0  0  0  0  0
    8.3210   -7.0950    0.0000 C   0  0  0  0  0  0  0  0  0  0  0  0
    9.0355   -6.6825    0.0000 O   0  0  0  0  0  0  0  0  0  0  0  0
    8.3210  -10.3950    0.0000 O   0  0  0  0  0  0  0  0  0  0  0  0
    9.7500   -9.5700    0.0000 O   0  0  0  0  0  0  0  0  0  0  0  0
   10.4644   -9.1575    0.0000 C   0  0  0  0  0  0  0  0  0  0  0  0
    9.0355   -5.8575    0.0000 C   0  0  0  0  0  0  0  0  0  0  0  0
    9.7500   -5.4450    0.0000 C   0  0  0  0  0  0  0  0  0  0  0  0
  1  2  2  0  0  0  0
  2  3  1  0  0  0  0
  3  4  2  0  0  0  0
  4  5  1  0  0  0  0
  5  6  2  0  0  0  0
  6  1  1  0  0  0  0
  2  7  1  0  0  0  0
  5  8  1  0  0  0  0
  8  9  1  0  0  0  0
  9 10  2  0  0  0  0
 10 11  1  0  0  0  0
 11 12  2  0  0  0  0
 12 13  1  0  0  0  0
 13 14  2  0  0  0  0
 14  9  1  0  0  0  0
 14 15  1  0  0  0  0
 15 16  1  0  0  0  0
 11 17  1  0  0  0  0
 12 18  1  0  0  0  0
 18 19  1  0  0  0  0
 16 20  1  0  0  0  0
 20 21  1  0  0  0  0
M  END
>  <cdx:fragmentId>
5

$$$$
