97956.cdx
  Mrv1902 05222410192D          

 23 24  0  0  0  0            999 V2000
    4.8862   -7.3700    0.0000 C   0  0  0  0  0  0  0  0  0  0  0  0
    4.8862   -8.1950    0.0000 C   0  0  0  0  0  0  0  0  0  0  0  0
    5.6006   -8.6075    0.0000 C   0  0  0  0  0  0  0  0  0  0  0  0
    6.3151   -8.1950    0.0000 C   0  0  0  0  0  0  0  0  0  0  0  0
    6.3151   -7.3700    0.0000 C   0  0  0  0  0  0  0  0  0  0  0  0
    5.6006   -6.9575    0.0000 C   0  0  0  0  0  0  0  0  0  0  0  0
    4.1717   -8.6075    0.0000 O   0  0  0  0  0  0  0  0  0  0  0  0
    1.3138   -8.6075    0.0000 C   0  0  0  0  0  0  0  0  0  0  0  0
    2.0283   -8.1950    0.0000 C   0  0  0  0  0  0  0  0  0  0  0  0
    2.7428   -8.6075    0.0000 O   0  0  0  0  0  0  0  0  0  0  0  0
    3.4572   -8.1950    0.0000 C   0  0  0  0  0  0  0  0  0  0  0  0
    7.0296   -6.9575    0.0000 C   0  0  0  0  0  0  0  0  0  0  0  0
    7.7441   -7.3700    0.0000 O   0  0  0  0  0  0  0  0  0  0  0  0
    8.4585   -6.9575    0.0000 C   0  0  0  0  0  0  0  0  0  0  0  0
    9.1730   -7.3700    0.0000 C   0  0  0  0  0  0  0  0  0  0  0  0
    9.8875   -6.9575    0.0000 C   0  0  0  0  0  0  0  0  0  0  0  0
    9.8875   -6.1325    0.0000 C   0  0  0  0  0  0  0  0  0  0  0  0
    9.1730   -5.7200    0.0000 C   0  0  0  0  0  0  0  0  0  0  0  0
    8.4585   -6.1325    0.0000 C   0  0  0  0  0  0  0  0  0  0  0  0
   10.6019   -5.7200    0.0000 C   0  0  0  0  0  0  0  0  0  0  0  0
   11.3164   -6.1325    0.0000 O   0  0  0  0  0  0  0  0  0  0  0  0
   12.0309   -5.7200    0.0000 C   0  0  0  0  0  0  0  0  0  0  0  0
   12.7454   -6.1325    0.0000 C   0  0  0  0  0  0  0  0  0  0  0  0
  1  2  2  0  0  0  0
  2  3  1  0  0  0  0
  3  4  2  0  0  0  0
  4  5  1  0  0  0  0
  5  6  2  0  0  0  0
  6  1  1  0  0  0  0
  2  7  1  0  0  0  0
  9  8  1  0  0  0  0
  7 11  1  0  0  0  0
 10  9  1  0  0  0  0
 11 10  1  0  0  0  0
  5 12  1  0  0  0  0
 12 13  1  0  0  0  0
 13 14  1  0  0  0  0
 14 15  2  0  0  0  0
 15 16  1  0  0  0  0
 16 17  2  0  0  0  0
 17 18  1  0  0  0  0
 18 19  2  0  0  0  0
 19 14  1  0  0  0  0
 17 20  1  0  0  0  0
 20 21  1  0  0  0  0
 21 22  1  0  0  0  0
 22 23  1  0  0  0  0
M  END
>  <cdx:fragmentId>
5

$$$$
