97951.cdx
  Mrv1902 05222410202D          

 46 50  0  0  0  0            999 V2000
    5.2437   -5.7888    0.0000 C   0  0  0  0  0  0  0  0  0  0  0  0
    5.2437   -6.6137    0.0000 C   0  0  0  0  0  0  0  0  0  0  0  0
    5.9581   -7.0263    0.0000 C   0  0  0  0  0  0  0  0  0  0  0  0
    6.6726   -6.6137    0.0000 C   0  0  0  0  0  0  0  0  0  0  0  0
    6.6726   -5.7888    0.0000 C   0  0  0  0  0  0  0  0  0  0  0  0
    5.9581   -5.3763    0.0000 C   0  0  0  0  0  0  0  0  0  0  0  0
    7.3871   -7.0263    0.0000 C   0  0  0  0  0  0  0  0  0  0  0  0
    8.1016   -6.6137    0.0000 C   0  0  0  0  0  0  0  0  0  0  0  0
    8.1016   -5.7888    0.0000 C   0  0  0  0  0  0  0  0  0  0  0  0
    7.3871   -5.3763    0.0000 O   0  0  0  0  0  0  0  0  0  0  0  0
    8.8160   -7.0263    0.0000 O   0  0  0  0  0  0  0  0  0  0  0  0
    9.5305   -5.7888    0.0000 C   0  0  0  0  0  0  0  0  0  0  0  0
    8.8160   -5.3763    0.0000 C   0  0  0  0  0  0  0  0  0  0  0  0
   10.2450   -5.3763    0.0000 C   0  0  0  0  0  0  0  0  0  0  0  0
   10.2450   -4.5512    0.0000 C   0  0  0  0  0  0  0  0  0  0  0  0
    9.5305   -4.1387    0.0000 C   0  0  0  0  0  0  0  0  0  0  0  0
    8.8160   -4.5512    0.0000 C   0  0  0  0  0  0  0  0  0  0  0  0
    4.5292   -5.3763    0.0000 O   0  0  0  0  0  0  0  0  0  0  0  0
    5.9581   -7.8513    0.0000 O   0  0  0  0  0  0  0  0  0  0  0  0
    7.3871   -7.8513    0.0000 O   0  0  0  0  0  0  0  0  0  0  0  0
   10.9594   -4.1387    0.0000 O   0  0  0  0  0  0  0  0  0  0  0  0
    8.8138   -7.8691    0.0000 C   0  0  2  0  0  0  0  0  0  0  0  0
    8.0993   -8.2814    0.0000 O   0  0  0  0  0  0  0  0  0  0  0  0
    8.0991   -9.1064    0.0000 C   0  0  1  0  0  0  0  0  0  0  0  0
    8.8135   -9.5191    0.0000 C   0  0  2  0  0  0  0  0  0  0  0  0
    9.5281   -9.1067    0.0000 C   0  0  1  0  0  0  0  0  0  0  0  0
    9.5282   -8.2817    0.0000 C   0  0  1  0  0  0  0  0  0  0  0  0
    8.8133  -10.3441    0.0000 O   0  0  0  0  0  0  0  0  0  0  0  0
    7.3846   -9.5188    0.0000 C   0  0  0  0  0  0  0  0  0  0  0  0
   10.2424   -9.5194    0.0000 O   0  0  0  0  0  0  0  0  0  0  0  0
   10.2428   -7.8694    0.0000 O   0  0  0  0  0  0  0  0  0  0  0  0
    9.5305   -3.3138    0.0000 O   0  0  0  0  0  0  0  0  0  0  0  0
   10.9594   -5.7888    0.0000 O   0  0  0  0  0  0  0  0  0  0  0  0
    7.3846  -10.3438    0.0000 O   0  0  0  0  0  0  0  0  0  0  0  0
   10.9594   -3.3138    0.0000 C   0  0  0  0  0  0  0  0  0  0  0  0
    6.6722  -10.7374    0.0000 C   0  0  2  0  0  0  0  0  0  0  0  0
    5.9616  -10.3184    0.0000 O   0  0  0  0  0  0  0  0  0  0  0  0
    5.2433  -10.7243    0.0000 C   0  0  2  0  0  0  0  0  0  0  0  0
    5.2357  -11.5492    0.0000 C   0  0  1  0  0  0  0  0  0  0  0  0
    5.9464  -11.9683    0.0000 C   0  0  2  0  0  0  0  0  0  0  0  0
    6.6646  -11.5624    0.0000 C   0  0  1  0  0  0  0  0  0  0  0  0
    4.5327  -10.3052    0.0000 C   0  0  0  0  0  0  0  0  0  0  0  0
    5.9388  -12.7933    0.0000 O   0  0  0  0  0  0  0  0  0  0  0  0
    4.5175  -11.9551    0.0000 O   0  0  0  0  0  0  0  0  0  0  0  0
    7.3753  -11.9815    0.0000 O   0  0  0  0  0  0  0  0  0  0  0  0
    8.8160   -2.9013    0.0000 C   0  0  0  0  0  0  0  0  0  0  0  0
  1  2  2  0  0  0  0
  2  3  1  0  0  0  0
  3  4  2  0  0  0  0
  4  5  1  0  0  0  0
  5  6  2  0  0  0  0
  6  1  1  0  0  0  0
  4  7  1  0  0  0  0
  7  8  1  0  0  0  0
  8  9  2  0  0  0  0
  9 10  1  0  0  0  0
 10  5  1  0  0  0  0
  8 11  1  0  0  0  0
 12 13  2  0  0  0  0
 13  9  1  0  0  0  0
 12 14  1  0  0  0  0
 14 15  2  0  0  0  0
 15 16  1  0  0  0  0
 16 17  2  0  0  0  0
 17 13  1  0  0  0  0
  1 18  1  0  0  0  0
  3 19  1  0  0  0  0
  7 20  2  0  0  0  0
 15 21  1  0  0  0  0
 22 23  1  0  0  0  0
 23 24  1  0  0  0  0
 24 25  1  0  0  0  0
 25 26  1  0  0  0  0
 26 27  1  0  0  0  0
 27 22  1  0  0  0  0
 25 28  1  6  0  0  0
 24 29  1  1  0  0  0
 26 30  1  1  0  0  0
 27 31  1  6  0  0  0
 22 11  1  1  0  0  0
 16 32  1  0  0  0  0
 14 33  1  0  0  0  0
 29 34  1  0  0  0  0
 21 35  1  0  0  0  0
 36 37  1  0  0  0  0
 37 38  1  0  0  0  0
 38 39  1  0  0  0  0
 39 40  1  0  0  0  0
 40 41  1  0  0  0  0
 41 36  1  0  0  0  0
 38 42  1  6  0  0  0
 40 43  1  6  0  0  0
 39 44  1  1  0  0  0
 41 45  1  6  0  0  0
 36 34  1  1  0  0  0
 32 46  1  0  0  0  0
M  END
>  <cdx:fragmentId>
228

$$$$
