97969.cdx
  Mrv1902 05222410182D          

 58 64  0  0  0  0            999 V2000
    4.3945   -7.3855    0.0000 C   0  0  2  0  0  0  0  0  0  0  0  0
    3.9820   -8.1000    0.0000 C   0  0  2  0  0  0  0  0  0  0  0  0
    4.3945   -8.8145    0.0000 C   0  0  1  0  0  0  0  0  0  0  0  0
    5.2195   -8.8145    0.0000 C   0  0  2  0  0  0  0  0  0  0  0  0
    5.6320   -8.1000    0.0000 C   0  0  1  0  0  0  0  0  0  0  0  0
    5.2195   -7.3855    0.0000 O   0  0  0  0  0  0  0  0  0  0  0  0
    3.9820   -6.6710    0.0000 C   0  0  0  0  0  0  0  0  0  0  0  0
    3.1570   -6.6710    0.0000 O   0  0  0  0  0  0  0  0  0  0  0  0
    3.1570   -8.1000    0.0000 O   0  0  0  0  0  0  0  0  0  0  0  0
    6.4570   -8.1000    0.0000 O   0  0  0  0  0  0  0  0  0  0  0  0
    6.8695   -7.3855    0.0000 C   0  0  2  0  0  0  0  0  0  0  0  0
    6.4570   -6.6710    0.0000 C   0  0  1  0  0  0  0  0  0  0  0  0
    5.6320   -6.6710    0.0000 O   0  0  0  0  0  0  0  0  0  0  0  0
    7.6945   -7.3855    0.0000 C   0  0  1  0  0  0  0  0  0  0  0  0
    8.1070   -6.6710    0.0000 O   0  0  0  0  0  0  0  0  0  0  0  0
    7.6945   -5.9566    0.0000 C   0  0  1  0  0  0  0  0  0  0  0  0
    6.8695   -5.9566    0.0000 C   0  0  1  0  0  0  0  0  0  0  0  0
    8.9320   -5.2421    0.0000 O   0  0  0  0  0  0  0  0  0  0  0  0
    8.1070   -5.2421    0.0000 C   0  0  0  0  0  0  0  0  0  0  0  0
    8.1070   -8.1000    0.0000 O   0  0  0  0  0  0  0  0  0  0  0  0
    8.9320   -8.1000    0.0000 C   0  0  2  0  0  0  0  0  0  0  0  0
    9.3445   -7.3855    0.0000 C   0  0  0  0  0  0  0  0  0  0  0  0
    9.2334   -8.8680    0.0000 C   0  0  0  0  0  0  0  0  0  0  0  0
   10.0217   -9.1111    0.0000 C   0  0  0  0  0  0  0  0  0  0  0  0
   10.7034   -8.6464    0.0000 C   0  0  2  0  0  0  0  0  0  0  0  0
   10.7650   -7.8237    0.0000 C   0  0  1  0  0  0  0  0  0  0  0  0
   10.1603   -7.2626    0.0000 C   0  0  0  0  0  0  0  0  0  0  0  0
   11.3850   -9.1111    0.0000 C   0  0  0  0  0  0  0  0  0  0  0  0
   12.1283   -8.7532    0.0000 C   0  0  0  0  0  0  0  0  0  0  0  0
   12.1900   -7.9305    0.0000 C   0  0  1  0  0  0  0  0  0  0  0  0
   11.5083   -7.4657    0.0000 C   0  0  1  0  0  0  0  0  0  0  0  0
   12.9333   -7.5725    0.0000 C   0  0  1  0  0  0  0  0  0  0  0  0
   12.9949   -6.7498    0.0000 C   0  0  0  0  0  0  0  0  0  0  0  0
   12.3133   -6.2851    0.0000 C   0  0  0  0  0  0  0  0  0  0  0  0
   11.5700   -6.6431    0.0000 C   0  0  0  0  0  0  0  0  0  0  0  0
   13.6149   -8.0373    0.0000 C   0  0  0  0  0  0  0  0  0  0  0  0
   13.5533   -8.8600    0.0000 O   0  0  0  0  0  0  0  0  0  0  0  0
   17.2080   -7.8947    0.0000 O   0  0  0  0  0  0  0  0  0  0  0  0
   15.5966  -10.2550    0.0000 C   0  0  0  0  0  0  0  0  0  0  0  0
   16.2779  -10.7201    0.0000 O   0  0  0  0  0  0  0  0  0  0  0  0
   17.0836   -9.5400    0.0000 O   0  0  0  0  0  0  0  0  0  0  0  0
   14.9774   -8.9671    0.0000 O   0  0  0  0  0  0  0  0  0  0  0  0
   15.6588   -9.4323    0.0000 C   0  0  1  0  0  0  0  0  0  0  0  0
   16.4023   -9.0748    0.0000 C   0  0  2  0  0  0  0  0  0  0  0  0
   16.4645   -8.2522    0.0000 C   0  0  1  0  0  0  0  0  0  0  0  0
   15.0396   -8.1445    0.0000 C   0  0  2  0  0  0  0  0  0  0  0  0
   15.7831   -7.7870    0.0000 C   0  0  2  0  0  0  0  0  0  0  0  0
    8.6723   -9.4727    0.0000 C   0  0  0  0  0  0  0  0  0  0  0  0
   10.0039   -7.9690    0.0000 C   0  0  0  0  0  0  0  0  0  0  0  0
   11.2948   -8.2626    0.0000 C   0  0  0  0  0  0  0  0  0  0  0  0
    3.9820   -9.5289    0.0000 O   0  0  0  0  0  0  0  0  0  0  0  0
    5.6320   -9.5289    0.0000 O   0  0  0  0  0  0  0  0  0  0  0  0
    6.4570   -5.2421    0.0000 O   0  0  0  0  0  0  0  0  0  0  0  0
   10.8880   -7.0079    0.0000 H   0  0  0  0  0  0  0  0  0  0  0  0
   12.9045   -8.3430    0.0000 H   0  0  0  0  0  0  0  0  0  0  0  0
   13.6766   -7.2146    0.0000 C   0  0  0  0  0  0  0  0  0  0  0  0
   15.8453   -6.9644    0.0000 O   0  0  0  0  0  0  0  0  0  0  0  0
   14.3582   -7.6793    0.0000 O   0  0  0  0  0  0  0  0  0  0  0  0
  1  2  1  0  0  0  0
  2  3  1  0  0  0  0
  3  4  1  0  0  0  0
  4  5  1  0  0  0  0
  5  6  1  0  0  0  0
  6  1  1  0  0  0  0
  1  7  1  1  0  0  0
  7  8  1  0  0  0  0
  2  9  1  6  0  0  0
  5 10  1  1  0  0  0
 11 10  1  6  0  0  0
 11 12  1  0  0  0  0
 12 13  1  1  0  0  0
 11 14  1  0  0  0  0
 14 15  1  0  0  0  0
 15 16  1  0  0  0  0
 16 17  1  0  0  0  0
 17 12  1  0  0  0  0
 18 19  1  0  0  0  0
 16 19  1  1  0  0  0
 14 20  1  1  0  0  0
 20 21  1  0  0  0  0
 21 22  1  0  0  0  0
 21 23  1  0  0  0  0
 23 24  2  0  0  0  0
 24 25  1  0  0  0  0
 25 26  1  0  0  0  0
 26 27  1  0  0  0  0
 27 22  1  0  0  0  0
 25 28  1  0  0  0  0
 28 29  1  0  0  0  0
 29 30  1  0  0  0  0
 30 31  1  0  0  0  0
 31 26  1  0  0  0  0
 30 32  1  0  0  0  0
 32 33  1  0  0  0  0
 33 34  1  0  0  0  0
 34 35  1  0  0  0  0
 35 31  1  0  0  0  0
 45 38  1  1  0  0  0
 32 36  1  0  0  0  0
 36 58  1  0  0  0  0
 43 39  1  1  0  0  0
 40 39  1  0  0  0  0
 36 37  2  0  0  0  0
 44 41  1  6  0  0  0
 42 46  1  0  0  0  0
 43 42  1  0  0  0  0
 44 43  1  0  0  0  0
 45 44  1  0  0  0  0
 47 45  1  0  0  0  0
 46 58  1  1  0  0  0
 47 46  1  0  0  0  0
 47 57  1  6  0  0  0
 23 48  1  0  0  0  0
 21 49  1  1  0  0  0
 25 49  1  1  0  0  0
 31 50  1  1  0  0  0
  3 51  1  1  0  0  0
  4 52  1  6  0  0  0
 17 53  1  6  0  0  0
 26 54  1  6  0  0  0
 30 55  1  6  0  0  0
 32 56  1  6  0  0  0
M  END
>  <cdx:fragmentId>
5

$$$$
