97962.cdx
  Mrv1902 05222410262D          

 27 29  0  0  0  0            999 V2000
    2.3407   -8.0053    0.0000 C   0  0  0  0  0  0  0  0  0  0  0  0
    2.3329   -8.8303    0.0000 C   0  0  0  0  0  0  0  0  0  0  0  0
    3.0434   -9.2495    0.0000 C   0  0  0  0  0  0  0  0  0  0  0  0
    3.7618   -8.8438    0.0000 C   0  0  0  0  0  0  0  0  0  0  0  0
    3.7696   -8.0189    0.0000 C   0  0  0  0  0  0  0  0  0  0  0  0
    3.0591   -7.5996    0.0000 C   0  0  0  0  0  0  0  0  0  0  0  0
    1.6145   -9.2360    0.0000 O   0  0  0  0  0  0  0  0  0  0  0  0
    4.4879   -7.6131    0.0000 C   0  0  0  0  0  0  0  0  0  0  0  0
    5.1985   -8.0324    0.0000 O   0  0  0  0  0  0  0  0  0  0  0  0
    5.9168   -7.6267    0.0000 C   0  0  0  0  0  0  0  0  0  0  0  0
    6.6273   -8.0460    0.0000 C   0  0  0  0  0  0  0  0  0  0  0  0
    7.3457   -7.6403    0.0000 C   0  0  0  0  0  0  0  0  0  0  0  0
    7.3535   -6.8153    0.0000 C   0  0  0  0  0  0  0  0  0  0  0  0
    6.6430   -6.3960    0.0000 C   0  0  0  0  0  0  0  0  0  0  0  0
    5.9246   -6.8017    0.0000 C   0  0  0  0  0  0  0  0  0  0  0  0
    8.0719   -6.4096    0.0000 C   0  0  0  0  0  0  0  0  0  0  0  0
    8.7824   -6.8289    0.0000 C   0  0  0  0  0  0  0  0  0  0  0  0
    8.7746   -7.6538    0.0000 C   0  0  0  0  0  0  0  0  0  0  0  0
    9.4851   -8.0731    0.0000 C   0  0  0  0  0  0  0  0  0  0  0  0
   10.2034   -7.6674    0.0000 C   0  0  0  0  0  0  0  0  0  0  0  0
   10.2113   -6.8424    0.0000 C   0  0  0  0  0  0  0  0  0  0  0  0
    9.5007   -6.4232    0.0000 C   0  0  0  0  0  0  0  0  0  0  0  0
    8.0562   -8.0595    0.0000 O   0  0  0  0  0  0  0  0  0  0  0  0
   10.9296   -6.4367    0.0000 C   0  0  0  0  0  0  0  0  0  0  0  0
   11.6401   -6.8560    0.0000 O   0  0  0  0  0  0  0  0  0  0  0  0
   12.3585   -6.4503    0.0000 C   0  0  0  0  0  0  0  0  0  0  0  0
   13.0690   -6.8695    0.0000 C   0  0  0  0  0  0  0  0  0  0  0  0
  1  2  2  0  0  0  0
  2  3  1  0  0  0  0
  3  4  2  0  0  0  0
  4  5  1  0  0  0  0
  5  6  2  0  0  0  0
  6  1  1  0  0  0  0
  2  7  1  0  0  0  0
  5  8  1  0  0  0  0
  8  9  1  0  0  0  0
  9 10  1  0  0  0  0
 10 11  2  0  0  0  0
 11 12  1  0  0  0  0
 12 13  2  0  0  0  0
 13 14  1  0  0  0  0
 14 15  2  0  0  0  0
 15 10  1  0  0  0  0
 13 16  1  0  0  0  0
 16 17  1  0  0  0  0
 17 18  2  0  0  0  0
 18 19  1  0  0  0  0
 19 20  2  0  0  0  0
 20 21  1  0  0  0  0
 21 22  2  0  0  0  0
 22 17  1  0  0  0  0
 18 23  1  0  0  0  0
 21 24  1  0  0  0  0
 24 25  1  0  0  0  0
 25 26  1  0  0  0  0
 26 27  1  0  0  0  0
M  END
>  <cdx:fragmentId>
5

$$$$
