97961.cdx
  Mrv1902 05222410262D          

 27 29  0  0  0  0            999 V2000
    2.5624   -8.0162    0.0000 C   0  0  0  0  0  0  0  0  0  0  0  0
    2.5624   -8.8413    0.0000 C   0  0  0  0  0  0  0  0  0  0  0  0
    3.2769   -9.2538    0.0000 C   0  0  0  0  0  0  0  0  0  0  0  0
    3.9914   -8.8413    0.0000 C   0  0  0  0  0  0  0  0  0  0  0  0
    3.9914   -8.0162    0.0000 C   0  0  0  0  0  0  0  0  0  0  0  0
    3.2769   -7.6037    0.0000 C   0  0  0  0  0  0  0  0  0  0  0  0
    4.7058   -9.2538    0.0000 O   0  0  0  0  0  0  0  0  0  0  0  0
    5.4203   -8.8413    0.0000 C   0  0  0  0  0  0  0  0  0  0  0  0
    5.4203   -8.0162    0.0000 C   0  0  0  0  0  0  0  0  0  0  0  0
    4.7058   -7.6037    0.0000 C   0  0  0  0  0  0  0  0  0  0  0  0
    6.1348   -9.2538    0.0000 C   0  0  0  0  0  0  0  0  0  0  0  0
    6.8493   -8.8413    0.0000 C   0  0  0  0  0  0  0  0  0  0  0  0
    6.8493   -8.0162    0.0000 C   0  0  0  0  0  0  0  0  0  0  0  0
    6.1348   -7.6037    0.0000 C   0  0  0  0  0  0  0  0  0  0  0  0
    8.2782   -8.0162    0.0000 O   0  0  0  0  0  0  0  0  0  0  0  0
    7.5637   -7.6037    0.0000 C   0  0  0  0  0  0  0  0  0  0  0  0
    1.8480   -9.2538    0.0000 O   0  0  0  0  0  0  0  0  0  0  0  0
    8.9927   -7.6037    0.0000 C   0  0  0  0  0  0  0  0  0  0  0  0
    9.7071   -8.0162    0.0000 C   0  0  0  0  0  0  0  0  0  0  0  0
   10.4216   -7.6037    0.0000 C   0  0  0  0  0  0  0  0  0  0  0  0
   10.4216   -6.7788    0.0000 C   0  0  0  0  0  0  0  0  0  0  0  0
    9.7071   -6.3662    0.0000 C   0  0  0  0  0  0  0  0  0  0  0  0
    8.9927   -6.7788    0.0000 C   0  0  0  0  0  0  0  0  0  0  0  0
   13.2795   -6.7787    0.0000 C   0  0  0  0  0  0  0  0  0  0  0  0
   12.5650   -6.3662    0.0000 C   0  0  0  0  0  0  0  0  0  0  0  0
   11.8506   -6.7787    0.0000 O   0  0  0  0  0  0  0  0  0  0  0  0
   11.1361   -6.3662    0.0000 C   0  0  0  0  0  0  0  0  0  0  0  0
  1  2  2  0  0  0  0
  2  3  1  0  0  0  0
  3  4  2  0  0  0  0
  4  5  1  0  0  0  0
  5  6  2  0  0  0  0
  6  1  1  0  0  0  0
  7  8  1  0  0  0  0
  8  9  2  0  0  0  0
  9 10  1  0  0  0  0
 10  5  1  0  0  0  0
  8 11  1  0  0  0  0
 11 12  2  0  0  0  0
 12 13  1  0  0  0  0
 13 14  2  0  0  0  0
 14  9  1  0  0  0  0
 15 16  1  0  0  0  0
 16 13  1  0  0  0  0
  2 17  1  0  0  0  0
 15 18  1  0  0  0  0
 18 19  2  0  0  0  0
 19 20  1  0  0  0  0
 20 21  2  0  0  0  0
 21 22  1  0  0  0  0
 22 23  2  0  0  0  0
 23 18  1  0  0  0  0
 25 24  1  0  0  0  0
 21 27  1  0  0  0  0
 26 25  1  0  0  0  0
 27 26  1  0  0  0  0
M  END
>  <cdx:fragmentId>
5

$$$$
