97964.cdx
  Mrv1902 05222410282D          

 19 20  0  0  0  0            999 V2000
    3.6899   -9.0200    0.0000 C   0  0  0  0  0  0  0  0  0  0  0  0
    3.6899   -9.8450    0.0000 C   0  0  0  0  0  0  0  0  0  0  0  0
    4.4044  -10.2575    0.0000 C   0  0  0  0  0  0  0  0  0  0  0  0
    5.1189   -9.8450    0.0000 C   0  0  0  0  0  0  0  0  0  0  0  0
    5.1189   -9.0200    0.0000 C   0  0  0  0  0  0  0  0  0  0  0  0
    4.4044   -8.6075    0.0000 C   0  0  0  0  0  0  0  0  0  0  0  0
    2.9755  -10.2575    0.0000 O   0  0  0  0  0  0  0  0  0  0  0  0
    5.8333   -8.6075    0.0000 C   0  0  0  0  0  0  0  0  0  0  0  0
    6.5478   -9.0200    0.0000 O   0  0  0  0  0  0  0  0  0  0  0  0
    7.2623   -8.6075    0.0000 C   0  0  0  0  0  0  0  0  0  0  0  0
    7.9768   -9.0200    0.0000 C   0  0  0  0  0  0  0  0  0  0  0  0
    8.6912   -8.6075    0.0000 C   0  0  0  0  0  0  0  0  0  0  0  0
    8.6912   -7.7825    0.0000 C   0  0  0  0  0  0  0  0  0  0  0  0
    7.9768   -7.3700    0.0000 C   0  0  0  0  0  0  0  0  0  0  0  0
    7.2623   -7.7825    0.0000 C   0  0  0  0  0  0  0  0  0  0  0  0
    9.4057   -7.3700    0.0000 C   0  0  0  0  0  0  0  0  0  0  0  0
   10.1202   -7.7825    0.0000 O   0  0  0  0  0  0  0  0  0  0  0  0
   10.8346   -7.3700    0.0000 C   0  0  0  0  0  0  0  0  0  0  0  0
   11.5491   -7.7825    0.0000 C   0  0  0  0  0  0  0  0  0  0  0  0
  1  2  2  0  0  0  0
  2  3  1  0  0  0  0
  3  4  2  0  0  0  0
  4  5  1  0  0  0  0
  5  6  2  0  0  0  0
  6  1  1  0  0  0  0
  2  7  1  0  0  0  0
  5  8  1  0  0  0  0
  8  9  1  0  0  0  0
  9 10  1  0  0  0  0
 10 11  2  0  0  0  0
 11 12  1  0  0  0  0
 12 13  2  0  0  0  0
 13 14  1  0  0  0  0
 14 15  2  0  0  0  0
 15 10  1  0  0  0  0
 13 16  1  0  0  0  0
 16 17  1  0  0  0  0
 17 18  1  0  0  0  0
 18 19  1  0  0  0  0
M  END
>  <cdx:fragmentId>
5

$$$$
