97967.cdx
  Mrv1902 05222410272D          

 23 25  0  0  0  0            999 V2000
    3.9787   -7.5625    0.0000 C   0  0  0  0  0  0  0  0  0  0  0  0
    3.9787   -8.3875    0.0000 C   0  0  0  0  0  0  0  0  0  0  0  0
    4.6931   -8.8000    0.0000 C   0  0  0  0  0  0  0  0  0  0  0  0
    5.4076   -8.3875    0.0000 C   0  0  0  0  0  0  0  0  0  0  0  0
    5.4076   -7.5625    0.0000 C   0  0  0  0  0  0  0  0  0  0  0  0
    4.6931   -7.1500    0.0000 C   0  0  0  0  0  0  0  0  0  0  0  0
    3.2642   -8.8000    0.0000 O   0  0  0  0  0  0  0  0  0  0  0  0
    6.1221   -7.1500    0.0000 C   0  0  0  0  0  0  0  0  0  0  0  0
    6.8366   -7.5625    0.0000 O   0  0  0  0  0  0  0  0  0  0  0  0
    7.5510   -7.1500    0.0000 C   0  0  0  0  0  0  0  0  0  0  0  0
    8.2655   -7.5625    0.0000 C   0  0  0  0  0  0  0  0  0  0  0  0
    8.9800   -7.1500    0.0000 C   0  0  0  0  0  0  0  0  0  0  0  0
    8.9800   -6.3250    0.0000 C   0  0  0  0  0  0  0  0  0  0  0  0
    8.2655   -5.9125    0.0000 C   0  0  0  0  0  0  0  0  0  0  0  0
    7.5510   -6.3250    0.0000 C   0  0  0  0  0  0  0  0  0  0  0  0
    9.6944   -5.9125    0.0000 C   0  0  0  0  0  0  0  0  0  0  0  0
   10.4089   -6.3250    0.0000 C   0  0  0  0  0  0  0  0  0  0  0  0
   10.4089   -7.1500    0.0000 C   0  0  0  0  0  0  0  0  0  0  0  0
   11.1234   -7.5625    0.0000 C   0  0  0  0  0  0  0  0  0  0  0  0
   11.8379   -7.1500    0.0000 C   0  0  0  0  0  0  0  0  0  0  0  0
   11.8379   -6.3250    0.0000 C   0  0  0  0  0  0  0  0  0  0  0  0
   11.1234   -5.9125    0.0000 C   0  0  0  0  0  0  0  0  0  0  0  0
   12.5523   -7.5625    0.0000 O   0  0  0  0  0  0  0  0  0  0  0  0
  1  2  2  0  0  0  0
  2  3  1  0  0  0  0
  3  4  2  0  0  0  0
  4  5  1  0  0  0  0
  5  6  2  0  0  0  0
  6  1  1  0  0  0  0
  2  7  1  0  0  0  0
  5  8  1  0  0  0  0
  8  9  1  0  0  0  0
 10  9  1  0  0  0  0
 10 11  2  0  0  0  0
 11 12  1  0  0  0  0
 12 13  2  0  0  0  0
 13 14  1  0  0  0  0
 14 15  2  0  0  0  0
 15 10  1  0  0  0  0
 13 16  1  0  0  0  0
 16 17  1  0  0  0  0
 17 18  2  0  0  0  0
 18 19  1  0  0  0  0
 19 20  2  0  0  0  0
 20 21  1  0  0  0  0
 21 22  2  0  0  0  0
 22 17  1  0  0  0  0
 20 23  1  0  0  0  0
M  END
>  <cdx:fragmentId>
5

$$$$
