97963.cdx
  Mrv1902 05222410272D          

 27 29  0  0  0  0            999 V2000
   12.1971   -8.0508    0.0000 C   0  0  0  0  0  0  0  0  0  0  0  0
   12.1887   -7.2259    0.0000 C   0  0  0  0  0  0  0  0  0  0  0  0
   11.4701   -6.8207    0.0000 C   0  0  0  0  0  0  0  0  0  0  0  0
   10.7599   -7.2404    0.0000 C   0  0  0  0  0  0  0  0  0  0  0  0
   10.7683   -8.0654    0.0000 C   0  0  0  0  0  0  0  0  0  0  0  0
   11.4869   -8.4706    0.0000 C   0  0  0  0  0  0  0  0  0  0  0  0
   12.8990   -6.8061    0.0000 O   0  0  0  0  0  0  0  0  0  0  0  0
   10.0580   -8.4851    0.0000 C   0  0  0  0  0  0  0  0  0  0  0  0
    9.3394   -8.0799    0.0000 O   0  0  0  0  0  0  0  0  0  0  0  0
    8.6292   -8.4997    0.0000 C   0  0  0  0  0  0  0  0  0  0  0  0
    7.9105   -8.0944    0.0000 C   0  0  0  0  0  0  0  0  0  0  0  0
    7.2003   -8.5142    0.0000 C   0  0  0  0  0  0  0  0  0  0  0  0
    7.2087   -9.3391    0.0000 C   0  0  0  0  0  0  0  0  0  0  0  0
    7.9273   -9.7444    0.0000 C   0  0  0  0  0  0  0  0  0  0  0  0
    8.6375   -9.3246    0.0000 C   0  0  0  0  0  0  0  0  0  0  0  0
    6.4984   -9.7589    0.0000 C   0  0  0  0  0  0  0  0  0  0  0  0
    5.7798   -9.3537    0.0000 O   0  0  0  0  0  0  0  0  0  0  0  0
    5.0696   -9.7734    0.0000 C   0  0  0  0  0  0  0  0  0  0  0  0
    4.3509   -9.3682    0.0000 C   0  0  0  0  0  0  0  0  0  0  0  0
    3.6407   -9.7880    0.0000 C   0  0  0  0  0  0  0  0  0  0  0  0
    3.6491  -10.6129    0.0000 C   0  0  0  0  0  0  0  0  0  0  0  0
    4.3677  -11.0181    0.0000 C   0  0  0  0  0  0  0  0  0  0  0  0
    5.0780  -10.5984    0.0000 C   0  0  0  0  0  0  0  0  0  0  0  0
    2.9389  -11.0327    0.0000 C   0  0  0  0  0  0  0  0  0  0  0  0
    2.2202  -10.6275    0.0000 O   0  0  0  0  0  0  0  0  0  0  0  0
    1.5100  -11.0472    0.0000 C   0  0  0  0  0  0  0  0  0  0  0  0
    0.7914  -10.6420    0.0000 C   0  0  0  0  0  0  0  0  0  0  0  0
  1  2  2  0  0  0  0
  2  3  1  0  0  0  0
  3  4  2  0  0  0  0
  4  5  1  0  0  0  0
  5  6  2  0  0  0  0
  6  1  1  0  0  0  0
  2  7  1  0  0  0  0
  5  8  1  0  0  0  0
  8  9  1  0  0  0  0
  9 10  1  0  0  0  0
 10 11  2  0  0  0  0
 11 12  1  0  0  0  0
 12 13  2  0  0  0  0
 13 14  1  0  0  0  0
 14 15  2  0  0  0  0
 15 10  1  0  0  0  0
 13 16  1  0  0  0  0
 16 17  1  0  0  0  0
 17 18  1  0  0  0  0
 18 19  2  0  0  0  0
 19 20  1  0  0  0  0
 20 21  2  0  0  0  0
 21 22  1  0  0  0  0
 22 23  2  0  0  0  0
 23 18  1  0  0  0  0
 21 24  1  0  0  0  0
 24 25  1  0  0  0  0
 25 26  1  0  0  0  0
 26 27  1  0  0  0  0
M  END
>  <cdx:fragmentId>
5

$$$$
