97968.cdx
  Mrv1902 05222410182D          

 25 27  0  0  0  0            999 V2000
    2.9453   -9.8037    0.0000 O   0  0  0  0  0  0  0  0  0  0  0  0
    3.6598   -9.3912    0.0000 C   0  0  0  0  0  0  0  0  0  0  0  0
    4.3743   -9.8038    0.0000 C   0  0  0  0  0  0  0  0  0  0  0  0
    5.0887   -9.3912    0.0000 C   0  0  0  0  0  0  0  0  0  0  0  0
    5.0887   -8.5662    0.0000 C   0  0  0  0  0  0  0  0  0  0  0  0
    4.3743   -8.1537    0.0000 C   0  0  0  0  0  0  0  0  0  0  0  0
    3.6598   -8.5662    0.0000 C   0  0  0  0  0  0  0  0  0  0  0  0
    5.8032   -8.1537    0.0000 C   0  0  0  0  0  0  0  0  0  0  0  0
    6.5177   -8.5662    0.0000 O   0  0  0  0  0  0  0  0  0  0  0  0
    7.2321   -8.1538    0.0000 C   0  0  0  0  0  0  0  0  0  0  0  0
    7.9466   -8.5663    0.0000 C   0  0  0  0  0  0  0  0  0  0  0  0
    7.9466   -9.3913    0.0000 C   0  0  0  0  0  0  0  0  0  0  0  0
    8.6611   -9.8038    0.0000 C   0  0  0  0  0  0  0  0  0  0  0  0
    9.3756   -9.3913    0.0000 C   0  0  0  0  0  0  0  0  0  0  0  0
    9.3756   -8.5663    0.0000 C   0  0  0  0  0  0  0  0  0  0  0  0
    8.6611   -8.1538    0.0000 C   0  0  0  0  0  0  0  0  0  0  0  0
   10.0900   -9.8038    0.0000 O   0  0  0  0  0  0  0  0  0  0  0  0
   10.8045   -9.3913    0.0000 C   0  0  0  0  0  0  0  0  0  0  0  0
   10.8045   -8.5663    0.0000 C   0  0  0  0  0  0  0  0  0  0  0  0
   11.5190   -8.1538    0.0000 C   0  0  0  0  0  0  0  0  0  0  0  0
   11.5190   -7.3287    0.0000 C   0  0  0  0  0  0  0  0  0  0  0  0
   10.8045   -6.9162    0.0000 C   0  0  0  0  0  0  0  0  0  0  0  0
   10.0900   -7.3287    0.0000 C   0  0  0  0  0  0  0  0  0  0  0  0
   10.0900   -8.1538    0.0000 C   0  0  0  0  0  0  0  0  0  0  0  0
   10.8045   -6.0912    0.0000 O   0  0  0  0  0  0  0  0  0  0  0  0
  2  1  1  0  0  0  0
  2  3  2  0  0  0  0
  3  4  1  0  0  0  0
  4  5  2  0  0  0  0
  5  6  1  0  0  0  0
  6  7  2  0  0  0  0
  7  2  1  0  0  0  0
  5  8  1  0  0  0  0
  8  9  1  0  0  0  0
 10  9  1  0  0  0  0
 10 11  1  0  0  0  0
 11 12  2  0  0  0  0
 12 13  1  0  0  0  0
 13 14  2  0  0  0  0
 14 15  1  0  0  0  0
 15 16  2  0  0  0  0
 16 11  1  0  0  0  0
 14 17  1  0  0  0  0
 17 18  1  0  0  0  0
 18 19  1  0  0  0  0
 19 20  2  0  0  0  0
 20 21  1  0  0  0  0
 21 22  2  0  0  0  0
 22 23  1  0  0  0  0
 23 24  2  0  0  0  0
 24 19  1  0  0  0  0
 22 25  1  0  0  0  0
M  END
>  <cdx:fragmentId>
5

$$$$
