97976.cdx
  Mrv1902 05222410262D          

 21 21  0  0  0  0            999 V2000
    9.2129   -7.6807    0.0000 C   0  0  0  0  0  0  0  0  0  0  0  0
    9.9288   -7.2707    0.0000 C   0  0  0  0  0  0  0  0  0  0  0  0
    9.8884   -6.4467    0.0000 C   0  0  0  0  0  0  0  0  0  0  0  0
    9.1546   -6.0696    0.0000 C   0  0  0  0  0  0  0  0  0  0  0  0
    2.9461  -10.1577    0.0000 C   0  0  0  0  0  0  0  0  0  0  0  0
    3.5611   -9.6078    0.0000 C   0  0  0  0  0  0  0  0  0  0  0  0
    4.3448   -9.8654    0.0000 C   0  0  0  0  0  0  0  0  0  0  0  0
    4.9598   -9.3154    0.0000 C   0  0  0  0  0  0  0  0  0  0  0  0
    5.7436   -9.5731    0.0000 C   0  0  0  0  0  0  0  0  0  0  0  0
    6.3585   -9.0231    0.0000 C   0  0  0  0  0  0  0  0  0  0  0  0
    7.1423   -9.2807    0.0000 C   0  0  0  0  0  0  0  0  0  0  0  0
    7.7573   -8.7308    0.0000 C   0  0  0  0  0  0  0  0  0  0  0  0
    3.1149  -10.9653    0.0000 O   0  0  0  0  0  0  0  0  0  0  0  0
   10.6614   -8.7407    0.0000 O   0  0  0  0  0  0  0  0  0  0  0  0
    9.1142   -5.2456    0.0000 C   0  0  0  0  0  0  0  0  0  0  0  0
    8.7933   -9.7739    0.0000 C   0  0  0  0  0  0  0  0  0  0  0  0
    9.6183   -9.7767    0.0000 C   0  0  0  0  0  0  0  0  0  0  0  0
    9.8759   -8.9929    0.0000 C   0  0  0  0  0  0  0  0  0  0  0  0
    9.2101   -8.5057    0.0000 C   0  0  1  0  0  0  0  0  0  0  0  0
    8.5410   -8.9884    0.0000 C   0  0  2  0  0  0  0  0  0  0  0  0
    2.1624   -9.9001    0.0000 O   0  0  0  0  0  0  0  0  0  0  0  0
 20 12  1  1  0  0  0
 18 14  2  0  0  0  0
 19  1  1  1  0  0  0
 20 16  1  0  0  0  0
 17 16  1  0  0  0  0
 18 17  1  0  0  0  0
 19 18  1  0  0  0  0
 20 19  1  0  0  0  0
  1  2  1  0  0  0  0
  2  3  2  0  0  0  0
  3  4  1  0  0  0  0
  4 15  1  0  0  0  0
  5  6  1  0  0  0  0
  6  7  1  0  0  0  0
  7  8  1  0  0  0  0
  8  9  1  0  0  0  0
  9 10  1  0  0  0  0
 10 11  1  0  0  0  0
 11 12  1  0  0  0  0
  5 13  2  0  0  0  0
  5 21  1  0  0  0  0
M  END
>  <cdx:fragmentId>
25

$$$$
