97977.cdx
  Mrv1902 05222410272D          

 63 68  0  0  0  0            999 V2000
    1.2192  -10.5700    0.0000 C   0  0  0  0  0  0  0  0  0  0  0  0
    1.2192   -9.7450    0.0000 C   0  0  0  0  0  0  0  0  0  0  0  0
    1.9337   -9.3325    0.0000 C   0  0  0  0  0  0  0  0  0  0  0  0
    1.9337  -10.9825    0.0000 C   0  0  0  0  0  0  0  0  0  0  0  0
    2.6482  -10.5700    0.0000 C   0  0  0  0  0  0  0  0  0  0  0  0
    3.3626  -10.9825    0.0000 C   0  0  0  0  0  0  0  0  0  0  0  0
    4.0771  -10.5700    0.0000 C   0  0  0  0  0  0  0  0  0  0  0  0
    4.0771   -9.7450    0.0000 C   0  0  1  0  0  0  0  0  0  0  0  0
    4.7916   -9.3325    0.0000 C   0  0  2  0  0  0  0  0  0  0  0  0
    5.5762   -9.5874    0.0000 C   0  0  0  0  0  0  0  0  0  0  0  0
    6.0611   -8.9200    0.0000 C   0  0  0  0  0  0  0  0  0  0  0  0
    5.5762   -8.2525    0.0000 C   0  0  2  0  0  0  0  0  0  0  0  0
    5.8311   -7.4679    0.0000 C   0  0  1  0  0  0  0  0  0  0  0  0
    6.6381   -7.2964    0.0000 C   0  0  0  0  0  0  0  0  0  0  0  0
    6.8930   -6.5118    0.0000 C   0  0  0  0  0  0  0  0  0  0  0  0
    7.7000   -6.3402    0.0000 C   0  0  0  0  0  0  0  0  0  0  0  0
    8.2521   -6.9533    0.0000 C   0  0  0  0  0  0  0  0  0  0  0  0
    7.9550   -5.5556    0.0000 C   0  0  0  0  0  0  0  0  0  0  0  0
    8.7619   -5.3841    0.0000 C   0  0  0  0  0  0  0  0  0  0  0  0
    7.4029   -4.9425    0.0000 C   0  0  0  0  0  0  0  0  0  0  0  0
    5.2791   -6.8548    0.0000 C   0  0  0  0  0  0  0  0  0  0  0  0
    4.7916   -8.5075    0.0000 C   0  0  2  0  0  0  0  0  0  0  0  0
    4.7916   -7.6825    0.0000 C   0  0  0  0  0  0  0  0  0  0  0  0
    4.0771   -8.0950    0.0000 C   0  0  0  0  0  0  0  0  0  0  0  0
    3.3626   -8.5075    0.0000 C   0  0  0  0  0  0  0  0  0  0  0  0
    3.3626   -9.3325    0.0000 C   0  0  2  0  0  0  0  0  0  0  0  0
    2.6482   -9.7450    0.0000 C   0  0  1  0  0  0  0  0  0  0  0  0
    2.6482   -8.9200    0.0000 C   0  0  0  0  0  0  0  0  0  0  0  0
    9.0169   -4.5995    0.0000 O   0  0  0  0  0  0  0  0  0  0  0  0
    9.3140   -5.9972    0.0000 O   0  0  0  0  0  0  0  0  0  0  0  0
    7.1901   -7.9095    0.0000 O   0  0  0  0  0  0  0  0  0  0  0  0
    2.6482   -8.0950    0.0000 O   0  0  0  0  0  0  0  0  0  0  0  0
    0.5048  -10.9825    0.0000 O   0  0  0  0  0  0  0  0  0  0  0  0
    1.9337   -8.5075    0.0000 O   0  0  0  0  0  0  0  0  0  0  0  0
    3.3626  -10.1575    0.0000 H   0  0  0  0  0  0  0  0  0  0  0  0
    4.0771   -8.9200    0.0000 H   0  0  0  0  0  0  0  0  0  0  0  0
    4.7916  -10.1575    0.0000 H   0  0  0  0  0  0  0  0  0  0  0  0
    6.3731   -8.0390    0.0000 H   0  0  0  0  0  0  0  0  0  0  0  0
    8.6083   -8.0739    0.0000 C   0  0  2  0  0  0  0  0  0  0  0  0
    9.3234   -8.4853    0.0000 C   0  0  2  0  0  0  0  0  0  0  0  0
   10.0373   -8.0717    0.0000 C   0  0  1  0  0  0  0  0  0  0  0  0
   10.0360   -7.2467    0.0000 C   0  0  2  0  0  0  0  0  0  0  0  0
    9.3209   -6.8353    0.0000 C   0  0  1  0  0  0  0  0  0  0  0  0
    8.6070   -7.2489    0.0000 O   0  0  0  0  0  0  0  0  0  0  0  0
    7.8945   -8.4876    0.0000 C   0  0  0  0  0  0  0  0  0  0  0  0
   10.7524   -8.4831    0.0000 O   0  0  0  0  0  0  0  0  0  0  0  0
    9.3247   -9.3103    0.0000 O   0  0  0  0  0  0  0  0  0  0  0  0
   10.7498   -6.8331    0.0000 O   0  0  0  0  0  0  0  0  0  0  0  0
    7.8958   -9.3126    0.0000 O   0  0  0  0  0  0  0  0  0  0  0  0
    7.1820   -9.7262    0.0000 C   0  0  0  0  0  0  0  0  0  0  0  0
    7.1833  -10.5512    0.0000 C   0  0  0  0  0  0  0  0  0  0  0  0
    6.4669   -9.3148    0.0000 O   0  0  0  0  0  0  0  0  0  0  0  0
   12.1943   -8.4821    0.0000 C   0  0  2  0  0  0  0  0  0  0  0  0
   12.9078   -8.0679    0.0000 C   0  0  2  0  0  0  0  0  0  0  0  0
   12.9058   -7.2429    0.0000 C   0  0  1  0  0  0  0  0  0  0  0  0
   12.1903   -6.8321    0.0000 C   0  0  2  0  0  0  0  0  0  0  0  0
   11.4769   -7.2463    0.0000 C   0  0  1  0  0  0  0  0  0  0  0  0
   11.4788   -8.0713    0.0000 O   0  0  0  0  0  0  0  0  0  0  0  0
   12.1962   -9.3071    0.0000 C   0  0  0  0  0  0  0  0  0  0  0  0
   13.6193   -6.8287    0.0000 O   0  0  0  0  0  0  0  0  0  0  0  0
   13.6232   -8.4787    0.0000 O   0  0  0  0  0  0  0  0  0  0  0  0
   12.1884   -6.0071    0.0000 O   0  0  0  0  0  0  0  0  0  0  0  0
   12.9117   -9.7179    0.0000 O   0  0  0  0  0  0  0  0  0  0  0  0
  1  2  1  0  0  0  0
  2  3  1  0  0  0  0
  1  4  1  0  0  0  0
  4  5  1  0  0  0  0
  5  6  2  0  0  0  0
  6  7  1  0  0  0  0
  7  8  1  0  0  0  0
  8  9  1  0  0  0  0
  9 10  1  0  0  0  0
 10 11  1  0  0  0  0
 12 11  1  0  0  0  0
 12 13  1  0  0  0  0
 13 14  1  0  0  0  0
 14 15  1  0  0  0  0
 15 16  1  0  0  0  0
 16 17  1  0  0  0  0
 16 18  2  0  0  0  0
 18 19  1  0  0  0  0
 18 20  1  0  0  0  0
 13 21  1  6  0  0  0
 12 22  1  0  0  0  0
  9 22  1  0  0  0  0
 22 23  1  1  0  0  0
 22 24  1  0  0  0  0
 24 25  1  0  0  0  0
 25 26  1  0  0  0  0
  8 26  1  0  0  0  0
 26 27  1  0  0  0  0
  3 27  1  0  0  0  0
  5 27  1  0  0  0  0
 27 28  1  1  0  0  0
 19 29  2  0  0  0  0
 19 30  1  0  0  0  0
 14 31  1  0  0  0  0
 25 32  1  0  0  0  0
  1 33  1  0  0  0  0
  3 34  1  0  0  0  0
 26 35  1  6  0  0  0
  8 36  1  1  0  0  0
  9 37  1  6  0  0  0
 12 38  1  6  0  0  0
 39 40  1  0  0  0  0
 40 41  1  0  0  0  0
 41 42  1  0  0  0  0
 42 43  1  0  0  0  0
 43 44  1  0  0  0  0
 44 39  1  0  0  0  0
 39 45  1  1  0  0  0
 41 46  1  1  0  0  0
 40 47  1  6  0  0  0
 42 48  1  6  0  0  0
 45 49  1  0  0  0  0
 49 50  1  0  0  0  0
 50 51  1  0  0  0  0
 50 52  2  0  0  0  0
 53 54  1  0  0  0  0
 54 55  1  0  0  0  0
 55 56  1  0  0  0  0
 56 57  1  0  0  0  0
 57 58  1  0  0  0  0
 58 53  1  0  0  0  0
 53 59  1  1  0  0  0
 55 60  1  1  0  0  0
 54 61  1  6  0  0  0
 56 62  1  6  0  0  0
 59 63  1  0  0  0  0
 57 48  1  1  0  0  0
 43 30  1  1  0  0  0
M  END
>  <cdx:fragmentId>
5

$$$$
