97978.cdx
  Mrv1902 05222410202D          

 21 22  0  0  0  0            999 V2000
    6.1239   -7.5762    0.0000 O   0  0  0  0  0  0  0  0  0  0  0  0
    6.8384   -7.9887    0.0000 C   0  0  2  0  0  0  0  0  0  0  0  0
    6.8384   -8.8137    0.0000 C   0  0  1  0  0  0  0  0  0  0  0  0
    6.1239   -9.2262    0.0000 C   0  0  2  0  0  0  0  0  0  0  0  0
    5.4095   -8.8137    0.0000 C   0  0  1  0  0  0  0  0  0  0  0  0
    5.4095   -7.9887    0.0000 C   0  0  1  0  0  0  0  0  0  0  0  0
    7.5529   -9.2262    0.0000 O   0  0  0  0  0  0  0  0  0  0  0  0
    6.1239  -10.0512    0.0000 O   0  0  0  0  0  0  0  0  0  0  0  0
    4.6950   -9.2262    0.0000 O   0  0  0  0  0  0  0  0  0  0  0  0
    4.6950   -7.5762    0.0000 C   0  0  0  0  0  0  0  0  0  0  0  0
    3.9805   -7.9887    0.0000 O   0  0  0  0  0  0  0  0  0  0  0  0
    7.5529   -7.5762    0.0000 O   0  0  0  0  0  0  0  0  0  0  0  0
    8.2674   -7.9887    0.0000 C   0  0  0  0  0  0  0  0  0  0  0  0
    8.9818   -7.5762    0.0000 C   0  0  0  0  0  0  0  0  0  0  0  0
    9.6963   -7.9888    0.0000 C   0  0  0  0  0  0  0  0  0  0  0  0
    9.6963   -8.8138    0.0000 C   0  0  0  0  0  0  0  0  0  0  0  0
    8.9818   -9.2263    0.0000 C   0  0  0  0  0  0  0  0  0  0  0  0
    8.2674   -8.8137    0.0000 C   0  0  0  0  0  0  0  0  0  0  0  0
    8.9818   -6.7512    0.0000 C   0  0  0  0  0  0  0  0  0  0  0  0
    8.9818  -10.0512    0.0000 O   0  0  0  0  0  0  0  0  0  0  0  0
   10.4108   -7.5762    0.0000 O   0  0  0  0  0  0  0  0  0  0  0  0
  1  2  1  0  0  0  0
  2  3  1  0  0  0  0
  3  4  1  0  0  0  0
  4  5  1  0  0  0  0
  5  6  1  0  0  0  0
  1  6  1  0  0  0  0
  3  7  1  6  0  0  0
  4  8  1  1  0  0  0
  5  9  1  6  0  0  0
 10 11  1  0  0  0  0
  6 10  1  1  0  0  0
 13 14  1  0  0  0  0
 14 15  2  0  0  0  0
 15 16  1  0  0  0  0
 16 17  2  0  0  0  0
 17 18  1  0  0  0  0
 13 18  2  0  0  0  0
 12 13  1  0  0  0  0
 14 19  1  0  0  0  0
 17 20  1  0  0  0  0
 15 21  1  0  0  0  0
  2 12  1  1  0  0  0
M  END
>  <cdx:fragmentId>
5

$$$$
