97971.cdx
  Mrv1902 05222410282D          

 41 44  0  0  0  0            999 V2000
    7.1143   -5.5360    0.0000 C   0  0  0  0  0  0  0  0  0  0  0  0
    7.1143   -4.7110    0.0000 C   0  0  0  0  0  0  0  0  0  0  0  0
    7.8287   -5.9485    0.0000 O   0  0  0  0  0  0  0  0  0  0  0  0
    6.3998   -5.9485    0.0000 O   0  0  0  0  0  0  0  0  0  0  0  0
    6.3998   -6.7735    0.0000 C   0  0  0  0  0  0  0  0  0  0  0  0
    5.6853   -8.0110    0.0000 O   0  0  0  0  0  0  0  0  0  0  0  0
    5.6853   -7.1860    0.0000 C   0  0  1  0  0  0  0  0  0  0  0  0
    4.9709   -6.7735    0.0000 C   0  0  2  0  0  0  0  0  0  0  0  0
    4.2564   -7.1860    0.0000 C   0  0  1  0  0  0  0  0  0  0  0  0
    4.2564   -8.0110    0.0000 C   0  0  2  0  0  0  0  0  0  0  0  0
    4.9709   -8.4235    0.0000 C   0  0  2  0  0  0  0  0  0  0  0  0
    4.9709   -9.2485    0.0000 O   0  0  0  0  0  0  0  0  0  0  0  0
    3.5419   -6.7735    0.0000 O   0  0  0  0  0  0  0  0  0  0  0  0
    3.5419   -8.4235    0.0000 O   0  0  0  0  0  0  0  0  0  0  0  0
    2.8274   -8.0110    0.0000 C   0  0  0  0  0  0  0  0  0  0  0  0
    2.1130   -8.4235    0.0000 O   0  0  0  0  0  0  0  0  0  0  0  0
    2.8274   -7.1860    0.0000 C   0  0  0  0  0  0  0  0  0  0  0  0
    4.9709   -5.9485    0.0000 O   0  0  0  0  0  0  0  0  0  0  0  0
    4.2564   -5.5360    0.0000 C   0  0  0  0  0  0  0  0  0  0  0  0
    3.5419   -5.9485    0.0000 O   0  0  0  0  0  0  0  0  0  0  0  0
    4.2564   -4.7110    0.0000 C   0  0  0  0  0  0  0  0  0  0  0  0
   11.4011  -12.1360    0.0000 O   0  0  0  0  0  0  0  0  0  0  0  0
    9.9722  -10.4860    0.0000 C   0  0  0  0  0  0  0  0  0  0  0  0
   10.6866  -10.8985    0.0000 C   0  0  0  0  0  0  0  0  0  0  0  0
   10.6866  -11.7235    0.0000 C   0  0  0  0  0  0  0  0  0  0  0  0
    9.9722  -12.1360    0.0000 C   0  0  0  0  0  0  0  0  0  0  0  0
    9.2577  -11.7235    0.0000 C   0  0  0  0  0  0  0  0  0  0  0  0
    9.2577  -10.8985    0.0000 C   0  0  0  0  0  0  0  0  0  0  0  0
    4.9709  -11.7235    0.0000 C   0  0  0  0  0  0  0  0  0  0  0  0
    4.9709  -10.8985    0.0000 O   0  0  0  0  0  0  0  0  0  0  0  0
    7.8287  -11.7235    0.0000 O   0  0  0  0  0  0  0  0  0  0  0  0
    7.8287   -9.2485    0.0000 O   0  0  0  0  0  0  0  0  0  0  0  0
    7.1143   -9.6610    0.0000 C   0  0  0  0  0  0  0  0  0  0  0  0
    6.3998   -9.2485    0.0000 C   0  0  0  0  0  0  0  0  0  0  0  0
    5.6853   -9.6610    0.0000 C   0  0  0  0  0  0  0  0  0  0  0  0
    5.6853  -10.4860    0.0000 C   0  0  0  0  0  0  0  0  0  0  0  0
    6.3998  -10.8985    0.0000 C   0  0  0  0  0  0  0  0  0  0  0  0
    7.1143  -10.4860    0.0000 C   0  0  0  0  0  0  0  0  0  0  0  0
    7.8287  -10.8985    0.0000 C   0  0  0  0  0  0  0  0  0  0  0  0
    8.5432  -10.4860    0.0000 C   0  0  0  0  0  0  0  0  0  0  0  0
    8.5432   -9.6610    0.0000 C   0  0  0  0  0  0  0  0  0  0  0  0
 12 35  1  0  0  0  0
 40 28  1  0  0  0  0
 25 22  1  0  0  0  0
 28 23  2  0  0  0  0
 24 23  1  0  0  0  0
 25 24  2  0  0  0  0
 26 25  1  0  0  0  0
 27 26  2  0  0  0  0
 28 27  1  0  0  0  0
 36 30  1  0  0  0  0
 30 29  1  0  0  0  0
 39 31  2  0  0  0  0
 41 32  1  0  0  0  0
 33 32  1  0  0  0  0
 38 33  2  0  0  0  0
 34 33  1  0  0  0  0
 35 34  2  0  0  0  0
 36 35  1  0  0  0  0
 37 36  2  0  0  0  0
 38 37  1  0  0  0  0
 39 38  1  0  0  0  0
 40 39  1  0  0  0  0
 41 40  2  0  0  0  0
  1  2  1  0  0  0  0
  1  3  2  0  0  0  0
  1  4  1  0  0  0  0
  6  7  1  0  0  0  0
  7  8  1  0  0  0  0
  8  9  1  0  0  0  0
  9 10  1  0  0  0  0
 10 11  1  0  0  0  0
  6 11  1  0  0  0  0
 11 12  1  1  0  0  0
  9 13  1  1  0  0  0
 15 16  2  0  0  0  0
 15 17  1  0  0  0  0
 14 15  1  0  0  0  0
 10 14  1  6  0  0  0
 19 20  2  0  0  0  0
 19 21  1  0  0  0  0
 18 19  1  0  0  0  0
  8 18  1  6  0  0  0
  7  5  1  1  0  0  0
  4  5  1  0  0  0  0
M  END
>  <cdx:fragmentId>
29

$$$$
