97974.cdx
  Mrv1902 05222410262D          

 32 35  0  0  0  0            999 V2000
   11.4825   -7.0210    0.0000 O   0  0  0  0  0  0  0  0  0  0  0  0
   11.4825   -5.3710    0.0000 O   0  0  0  0  0  0  0  0  0  0  0  0
    9.3391   -5.7835    0.0000 C   0  0  0  0  0  0  0  0  0  0  0  0
   10.0535   -5.3710    0.0000 C   0  0  0  0  0  0  0  0  0  0  0  0
   10.7680   -5.7835    0.0000 C   0  0  0  0  0  0  0  0  0  0  0  0
   10.7680   -6.6085    0.0000 C   0  0  0  0  0  0  0  0  0  0  0  0
   10.0535   -7.0210    0.0000 C   0  0  0  0  0  0  0  0  0  0  0  0
    9.3391   -6.6085    0.0000 C   0  0  0  0  0  0  0  0  0  0  0  0
    5.0522   -6.6085    0.0000 O   0  0  0  0  0  0  0  0  0  0  0  0
    6.4812  -10.7335    0.0000 O   0  0  0  0  0  0  0  0  0  0  0  0
    5.0522  -11.5585    0.0000 O   0  0  0  0  0  0  0  0  0  0  0  0
    3.6233  -10.7335    0.0000 O   0  0  0  0  0  0  0  0  0  0  0  0
    2.9088   -9.4960    0.0000 O   0  0  0  0  0  0  0  0  0  0  0  0
    3.6233   -9.0835    0.0000 C   0  0  0  0  0  0  0  0  0  0  0  0
    4.3378   -9.4960    0.0000 C   0  0  2  0  0  0  0  0  0  0  0  0
    4.3378  -10.3210    0.0000 C   0  0  2  0  0  0  0  0  0  0  0  0
    5.0522  -10.7335    0.0000 C   0  0  1  0  0  0  0  0  0  0  0  0
    5.7667  -10.3210    0.0000 C   0  0  2  0  0  0  0  0  0  0  0  0
    5.7667   -9.4960    0.0000 C   0  0  1  0  0  0  0  0  0  0  0  0
    5.0522   -9.0835    0.0000 O   0  0  0  0  0  0  0  0  0  0  0  0
    6.4812   -9.0835    0.0000 O   0  0  0  0  0  0  0  0  0  0  0  0
    7.9101   -9.0835    0.0000 O   0  0  0  0  0  0  0  0  0  0  0  0
    7.9101   -6.6085    0.0000 O   0  0  0  0  0  0  0  0  0  0  0  0
    7.1956   -7.0210    0.0000 C   0  0  0  0  0  0  0  0  0  0  0  0
    6.4812   -6.6085    0.0000 C   0  0  0  0  0  0  0  0  0  0  0  0
    5.7667   -7.0210    0.0000 C   0  0  0  0  0  0  0  0  0  0  0  0
    5.7667   -7.8460    0.0000 C   0  0  0  0  0  0  0  0  0  0  0  0
    6.4812   -8.2585    0.0000 C   0  0  0  0  0  0  0  0  0  0  0  0
    7.1956   -7.8460    0.0000 C   0  0  0  0  0  0  0  0  0  0  0  0
    7.9101   -8.2585    0.0000 C   0  0  0  0  0  0  0  0  0  0  0  0
    8.6246   -7.8460    0.0000 C   0  0  0  0  0  0  0  0  0  0  0  0
    8.6246   -7.0210    0.0000 C   0  0  0  0  0  0  0  0  0  0  0  0
 32  8  1  0  0  0  0
  6  1  1  0  0  0  0
  5  2  1  0  0  0  0
  8  3  2  0  0  0  0
  4  3  1  0  0  0  0
  5  4  2  0  0  0  0
  6  5  1  0  0  0  0
  7  6  2  0  0  0  0
  8  7  1  0  0  0  0
 26  9  1  0  0  0  0
 28 21  1  0  0  0  0
 19 21  1  1  0  0  0
 18 10  1  6  0  0  0
 17 11  1  1  0  0  0
 16 12  1  6  0  0  0
 15 14  1  1  0  0  0
 14 13  1  0  0  0  0
 20 15  1  0  0  0  0
 16 15  1  0  0  0  0
 17 16  1  0  0  0  0
 18 17  1  0  0  0  0
 19 18  1  0  0  0  0
 20 19  1  0  0  0  0
 30 22  2  0  0  0  0
 32 23  1  0  0  0  0
 24 23  1  0  0  0  0
 29 24  2  0  0  0  0
 25 24  1  0  0  0  0
 26 25  2  0  0  0  0
 27 26  1  0  0  0  0
 28 27  2  0  0  0  0
 29 28  1  0  0  0  0
 30 29  1  0  0  0  0
 31 30  1  0  0  0  0
 32 31  2  0  0  0  0
M  END
>  <cdx:fragmentId>
29

$$$$
