97972.cdx
  Mrv1902 05222410272D          

 16 16  0  0  0  0            999 V2000
    8.0662   -8.6565    0.0000 C   0  0  1  0  0  0  0  0  0  0  0  0
    7.3517   -9.0690    0.0000 C   0  0  0  0  0  0  0  0  0  0  0  0
    6.6373   -8.6565    0.0000 C   0  0  0  0  0  0  0  0  0  0  0  0
    5.9228   -9.0690    0.0000 C   0  0  0  0  0  0  0  0  0  0  0  0
    5.2083   -8.6565    0.0000 C   0  0  0  0  0  0  0  0  0  0  0  0
    5.2083   -7.8315    0.0000 C   0  0  0  0  0  0  0  0  0  0  0  0
    5.9228   -7.4190    0.0000 C   0  0  0  0  0  0  0  0  0  0  0  0
    6.6373   -7.8315    0.0000 C   0  0  0  0  0  0  0  0  0  0  0  0
    7.3517   -7.4190    0.0000 C   0  0  0  0  0  0  0  0  0  0  0  0
    8.0662   -7.8315    0.0000 C   0  0  0  0  0  0  0  0  0  0  0  0
    8.8912   -8.6565    0.0000 O   0  0  0  0  0  0  0  0  0  0  0  0
    6.6373  -10.3065    0.0000 C   0  0  0  0  0  0  0  0  0  0  0  0
    5.9228   -9.8940    0.0000 C   0  0  0  0  0  0  0  0  0  0  0  0
    5.2083  -10.3065    0.0000 C   0  0  0  0  0  0  0  0  0  0  0  0
    5.9228   -6.5940    0.0000 C   0  0  0  0  0  0  0  0  0  0  0  0
    8.4787   -9.3710    0.0000 C   0  0  0  0  0  0  0  0  0  0  0  0
  1  2  1  0  0  0  0
  2  3  2  0  0  0  0
  3  4  1  0  0  0  0
  4  5  1  0  0  0  0
  5  6  1  0  0  0  0
  6  7  1  0  0  0  0
  7  8  2  0  0  0  0
  8  9  1  0  0  0  0
  9 10  1  0  0  0  0
  1 10  1  0  0  0  0
  1 11  1  1  0  0  0
 12 13  1  0  0  0  0
 13 14  1  0  0  0  0
  4 13  1  0  0  0  0
  7 15  1  0  0  0  0
  1 16  1  0  0  0  0
M  END
>  <cdx:fragmentId>
5

$$$$
