97979.cdx
  Mrv1902 05222410202D          

 12 11  0  0  0  0            999 V2000
    8.2674   -8.6710    0.0000 C   0  0  0  0  0  0  0  0  0  0  0  0
    7.5529   -8.2585    0.0000 C   0  0  0  0  0  0  0  0  0  0  0  0
    6.8384   -8.6710    0.0000 C   0  0  0  0  0  0  0  0  0  0  0  0
    8.2674   -9.4960    0.0000 C   0  0  0  0  0  0  0  0  0  0  0  0
    7.5529   -9.9085    0.0000 O   0  0  0  0  0  0  0  0  0  0  0  0
    8.9818   -9.9085    0.0000 O   0  0  0  0  0  0  0  0  0  0  0  0
    7.5529   -7.4335    0.0000 C   0  0  0  0  0  0  0  0  0  0  0  0
    6.8384   -7.0210    0.0000 O   0  0  0  0  0  0  0  0  0  0  0  0
    8.2674   -7.0210    0.0000 O   0  0  0  0  0  0  0  0  0  0  0  0
    6.1239   -8.2585    0.0000 C   0  0  0  0  0  0  0  0  0  0  0  0
    6.1239   -7.4335    0.0000 O   0  0  0  0  0  0  0  0  0  0  0  0
    5.4095   -8.6710    0.0000 O   0  0  0  0  0  0  0  0  0  0  0  0
  1  2  2  0  0  0  0
  2  3  1  0  0  0  0
  4  5  2  0  0  0  0
  4  6  1  0  0  0  0
  1  4  1  0  0  0  0
  7  8  2  0  0  0  0
  7  9  1  0  0  0  0
  2  7  1  0  0  0  0
 10 11  2  0  0  0  0
 10 12  1  0  0  0  0
  3 10  1  0  0  0  0
M  END
>  <cdx:fragmentId>
11

$$$$
