97975.cdx
  Mrv1902 05222410262D          

 40 45  0  0  0  0            999 V2000
    3.7461  -11.2592    0.0000 O   0  0  0  0  0  0  0  0  0  0  0  0
    3.7461  -10.4342    0.0000 C   0  0  0  0  0  0  0  0  0  0  0  0
    3.0316  -10.0217    0.0000 C   0  0  0  0  0  0  0  0  0  0  0  0
    2.3172  -10.4342    0.0000 C   0  0  0  0  0  0  0  0  0  0  0  0
    2.3172  -11.2592    0.0000 O   0  0  0  0  0  0  0  0  0  0  0  0
    1.6027  -10.0217    0.0000 C   0  0  0  0  0  0  0  0  0  0  0  0
    1.6027   -9.1967    0.0000 C   0  0  0  0  0  0  0  0  0  0  0  0
    0.8882   -8.7842    0.0000 O   0  0  0  0  0  0  0  0  0  0  0  0
    2.3172   -8.7842    0.0000 C   0  0  0  0  0  0  0  0  0  0  0  0
    3.0316   -9.1967    0.0000 C   0  0  0  0  0  0  0  0  0  0  0  0
    3.7461   -8.7842    0.0000 O   0  0  0  0  0  0  0  0  0  0  0  0
    4.4606   -9.1967    0.0000 C   0  0  0  0  0  0  0  0  0  0  0  0
    5.1750   -8.7842    0.0000 C   0  0  0  0  0  0  0  0  0  0  0  0
    5.1750   -7.9592    0.0000 C   0  0  0  0  0  0  0  0  0  0  0  0
    5.8895   -7.5467    0.0000 C   0  0  0  0  0  0  0  0  0  0  0  0
    5.8895   -9.1967    0.0000 C   0  0  0  0  0  0  0  0  0  0  0  0
    6.6040   -8.7842    0.0000 C   0  0  0  0  0  0  0  0  0  0  0  0
    7.3184   -9.1967    0.0000 O   0  0  0  0  0  0  0  0  0  0  0  0
    8.0330   -8.7842    0.0000 C   0  0  0  0  0  0  0  0  0  0  0  0
    8.0330   -7.9592    0.0000 C   0  0  0  0  0  0  0  0  0  0  0  0
    8.7474   -7.5467    0.0000 C   0  0  0  0  0  0  0  0  0  0  0  0
    8.7474   -9.1967    0.0000 C   0  0  0  0  0  0  0  0  0  0  0  0
    9.4619   -8.7842    0.0000 C   0  0  0  0  0  0  0  0  0  0  0  0
    9.4619   -7.9592    0.0000 C   0  0  0  0  0  0  0  0  0  0  0  0
   10.1764   -7.5467    0.0000 C   0  0  0  0  0  0  0  0  0  0  0  0
   10.8908   -7.9592    0.0000 O   0  0  0  0  0  0  0  0  0  0  0  0
   11.6053   -7.5467    0.0000 C   0  0  0  0  0  0  0  0  0  0  0  0
   11.6053   -6.7217    0.0000 C   0  0  0  0  0  0  0  0  0  0  0  0
   12.3198   -6.3092    0.0000 C   0  0  0  0  0  0  0  0  0  0  0  0
   12.3198   -5.4842    0.0000 O   0  0  0  0  0  0  0  0  0  0  0  0
   13.0342   -6.7217    0.0000 C   0  0  0  0  0  0  0  0  0  0  0  0
   13.0342   -7.5467    0.0000 C   0  0  0  0  0  0  0  0  0  0  0  0
   13.7487   -7.9592    0.0000 O   0  0  0  0  0  0  0  0  0  0  0  0
   12.3198   -7.9592    0.0000 C   0  0  0  0  0  0  0  0  0  0  0  0
   10.1764   -6.7217    0.0000 C   0  0  0  0  0  0  0  0  0  0  0  0
   10.8908   -6.3092    0.0000 C   0  0  0  0  0  0  0  0  0  0  0  0
   10.8908   -5.4842    0.0000 O   0  0  0  0  0  0  0  0  0  0  0  0
    6.6040   -7.9592    0.0000 C   0  0  0  0  0  0  0  0  0  0  0  0
    7.3184   -7.5467    0.0000 O   0  0  0  0  0  0  0  0  0  0  0  0
    4.4606  -10.0217    0.0000 C   0  0  0  0  0  0  0  0  0  0  0  0
  1  2  2  0  0  0  0
  2  3  1  0  0  0  0
  3  4  1  0  0  0  0
  4  5  1  0  0  0  0
  4  6  2  0  0  0  0
  6  7  1  0  0  0  0
  7  8  1  0  0  0  0
  7  9  2  0  0  0  0
  3 10  2  0  0  0  0
  9 10  1  0  0  0  0
 10 11  1  0  0  0  0
 11 12  1  0  0  0  0
 12 13  1  0  0  0  0
 13 14  1  0  0  0  0
 14 15  2  0  0  0  0
 13 16  2  0  0  0  0
 16 17  1  0  0  0  0
 17 18  1  0  0  0  0
 18 19  1  0  0  0  0
 19 20  1  0  0  0  0
 20 21  2  0  0  0  0
 19 22  2  0  0  0  0
 22 23  1  0  0  0  0
 23 24  2  0  0  0  0
 21 24  1  0  0  0  0
 24 25  1  0  0  0  0
 25 26  1  0  0  0  0
 26 27  1  0  0  0  0
 27 28  2  0  0  0  0
 28 29  1  0  0  0  0
 29 30  1  0  0  0  0
 29 31  2  0  0  0  0
 31 32  1  0  0  0  0
 32 33  1  0  0  0  0
 32 34  2  0  0  0  0
 27 34  1  0  0  0  0
 25 35  2  0  0  0  0
 35 36  1  0  0  0  0
 28 36  1  0  0  0  0
 36 37  2  0  0  0  0
 17 38  2  0  0  0  0
 15 38  1  0  0  0  0
 38 39  1  0  0  0  0
 12 40  2  0  0  0  0
  2 40  1  0  0  0  0
M  END
>  <cdx:fragmentId>
3

$$$$
