97980.cdx
  Mrv1902 05222410182D          

 81 86  0  0  0  0            999 V2000
   18.3138  -11.8060    0.0000 C   0  0  0  0  0  0  0  0  0  0  0  0
   17.5994  -12.2185    0.0000 C   0  0  0  0  0  0  0  0  0  0  0  0
   16.8849  -11.8060    0.0000 C   0  0  0  0  0  0  0  0  0  0  0  0
   16.1704  -12.2185    0.0000 C   0  0  0  0  0  0  0  0  0  0  0  0
   15.4560  -11.8060    0.0000 C   0  0  0  0  0  0  0  0  0  0  0  0
   14.7415  -12.2185    0.0000 C   0  0  0  0  0  0  0  0  0  0  0  0
   14.0270  -11.8060    0.0000 C   0  0  0  0  0  0  0  0  0  0  0  0
   13.3125  -12.2185    0.0000 C   0  0  0  0  0  0  0  0  0  0  0  0
   12.5981  -11.8060    0.0000 C   0  0  0  0  0  0  0  0  0  0  0  0
   11.8836  -12.2185    0.0000 C   0  0  0  0  0  0  0  0  0  0  0  0
   11.1691  -11.8060    0.0000 C   0  0  2  0  0  0  0  0  0  0  0  0
   10.4547  -12.2185    0.0000 C   0  0  0  0  0  0  0  0  0  0  0  0
    9.7402  -11.8060    0.0000 C   0  0  0  0  0  0  0  0  0  0  0  0
    9.0257  -12.2185    0.0000 C   0  0  0  0  0  0  0  0  0  0  0  0
    8.3113  -11.8060    0.0000 C   0  0  0  0  0  0  0  0  0  0  0  0
    7.5968  -12.2185    0.0000 C   0  0  0  0  0  0  0  0  0  0  0  0
   18.3138  -10.9810    0.0000 O   0  0  0  0  0  0  0  0  0  0  0  0
   19.0283  -12.2185    0.0000 O   0  0  0  0  0  0  0  0  0  0  0  0
   11.1691  -10.9810    0.0000 O   0  0  0  0  0  0  0  0  0  0  0  0
   12.5981  -10.9810    0.0000 O   0  0  0  0  0  0  0  0  0  0  0  0
   11.8836  -10.5685    0.0000 C   0  0  2  0  0  0  0  0  0  0  0  0
   11.8836   -9.7435    0.0000 C   0  0  1  0  0  0  0  0  0  0  0  0
   12.5981   -9.3310    0.0000 C   0  0  2  0  0  0  0  0  0  0  0  0
   13.3125   -9.7435    0.0000 C   0  0  1  0  0  0  0  0  0  0  0  0
   13.3125  -10.5685    0.0000 C   0  0  1  0  0  0  0  0  0  0  0  0
   14.0270  -10.9810    0.0000 C   0  0  0  0  0  0  0  0  0  0  0  0
   14.0270   -9.3310    0.0000 O   0  0  0  0  0  0  0  0  0  0  0  0
   12.5981   -8.5060    0.0000 O   0  0  0  0  0  0  0  0  0  0  0  0
   11.1691   -9.3310    0.0000 O   0  0  0  0  0  0  0  0  0  0  0  0
   11.8836   -8.0935    0.0000 O   0  0  0  0  0  0  0  0  0  0  0  0
   11.1691   -8.5060    0.0000 C   0  0  2  0  0  0  0  0  0  0  0  0
   10.4547   -8.0935    0.0000 C   0  0  1  0  0  0  0  0  0  0  0  0
   10.4547   -7.2685    0.0000 C   0  0  2  0  0  0  0  0  0  0  0  0
   11.1691   -6.8560    0.0000 C   0  0  1  0  0  0  0  0  0  0  0  0
   11.8836   -7.2685    0.0000 C   0  0  1  0  0  0  0  0  0  0  0  0
   12.5981   -6.8560    0.0000 C   0  0  0  0  0  0  0  0  0  0  0  0
   13.3125   -7.2685    0.0000 O   0  0  0  0  0  0  0  0  0  0  0  0
   11.1691   -6.0310    0.0000 O   0  0  0  0  0  0  0  0  0  0  0  0
    9.7402   -6.8560    0.0000 O   0  0  0  0  0  0  0  0  0  0  0  0
    9.7402   -8.5060    0.0000 O   0  0  0  0  0  0  0  0  0  0  0  0
    9.0257   -7.2685    0.0000 O   0  0  0  0  0  0  0  0  0  0  0  0
    9.0257   -8.0935    0.0000 C   0  0  2  0  0  0  0  0  0  0  0  0
    8.3113   -8.5060    0.0000 C   0  0  1  0  0  0  0  0  0  0  0  0
    7.5968   -8.0935    0.0000 C   0  0  1  0  0  0  0  0  0  0  0  0
    7.5968   -7.2685    0.0000 C   0  0  2  0  0  0  0  0  0  0  0  0
    8.3113   -6.8560    0.0000 C   0  0  2  0  0  0  0  0  0  0  0  0
    6.8823   -6.8560    0.0000 O   0  0  0  0  0  0  0  0  0  0  0  0
    7.5968   -5.6185    0.0000 O   0  0  0  0  0  0  0  0  0  0  0  0
    6.8823   -6.0310    0.0000 C   0  0  2  0  0  0  0  0  0  0  0  0
    6.1678   -5.6185    0.0000 C   0  0  1  0  0  0  0  0  0  0  0  0
    6.1678   -4.7935    0.0000 C   0  0  2  0  0  0  0  0  0  0  0  0
    6.8823   -4.3810    0.0000 C   0  0  2  0  0  0  0  0  0  0  0  0
    7.5968   -4.7935    0.0000 C   0  0  1  0  0  0  0  0  0  0  0  0
    8.3113   -4.3810    0.0000 C   0  0  0  0  0  0  0  0  0  0  0  0
    6.8823   -3.5560    0.0000 O   0  0  0  0  0  0  0  0  0  0  0  0
    5.4534   -4.3810    0.0000 O   0  0  0  0  0  0  0  0  0  0  0  0
    5.4534   -6.0310    0.0000 O   0  0  0  0  0  0  0  0  0  0  0  0
    8.3113   -6.0310    0.0000 C   0  0  0  0  0  0  0  0  0  0  0  0
    8.3113   -9.3310    0.0000 O   0  0  0  0  0  0  0  0  0  0  0  0
    4.4230   -7.0502    0.0000 C   0  0  0  0  0  0  0  0  0  0  0  0
    4.3919   -9.9079    0.0000 O   0  0  0  0  0  0  0  0  0  0  0  0
    3.5825   -8.4700    0.0000 O   0  0  0  0  0  0  0  0  0  0  0  0
    3.5981   -7.0412    0.0000 O   0  0  0  0  0  0  0  0  0  0  0  0
    6.8512  -11.3637    0.0000 O   0  0  0  0  0  0  0  0  0  0  0  0
    6.0107  -12.7836    0.0000 O   0  0  0  0  0  0  0  0  0  0  0  0
    4.3608  -12.7656    0.0000 O   0  0  0  0  0  0  0  0  0  0  0  0
    3.5514  -11.3278    0.0000 C   0  0  0  0  0  0  0  0  0  0  0  0
    4.3763  -11.3367    0.0000 C   0  0  2  0  0  0  0  0  0  0  0  0
    4.7810  -12.0557    0.0000 C   0  0  2  0  0  0  0  0  0  0  0  0
    5.6060  -12.0646    0.0000 C   0  0  1  0  0  0  0  0  0  0  0  0
    6.0262  -11.3547    0.0000 C   0  0  2  0  0  0  0  0  0  0  0  0
    5.6215  -10.6358    0.0000 C   0  0  1  0  0  0  0  0  0  0  0  0
    4.7966  -10.6268    0.0000 O   0  0  0  0  0  0  0  0  0  0  0  0
    6.0418   -9.9259    0.0000 O   0  0  0  0  0  0  0  0  0  0  0  0
    4.8277   -7.7691    0.0000 C   0  0  2  0  0  0  0  0  0  0  0  0
    4.4075   -8.4790    0.0000 C   0  0  2  0  0  0  0  0  0  0  0  0
    4.8122   -9.1980    0.0000 C   0  0  1  0  0  0  0  0  0  0  0  0
    5.6371   -9.2069    0.0000 C   0  0  2  0  0  0  0  0  0  0  0  0
    6.0574   -8.4970    0.0000 C   0  0  1  0  0  0  0  0  0  0  0  0
    5.6527   -7.7781    0.0000 O   0  0  0  0  0  0  0  0  0  0  0  0
    6.8823   -8.5060    0.0000 O   0  0  0  0  0  0  0  0  0  0  0  0
 79 81  1  1  0  0  0
 77 61  1  1  0  0  0
 76 62  1  6  0  0  0
 75 60  1  1  0  0  0
 78 74  1  6  0  0  0
 72 74  1  1  0  0  0
 71 64  1  6  0  0  0
 70 65  1  1  0  0  0
 69 66  1  6  0  0  0
 68 67  1  1  0  0  0
 73 68  1  0  0  0  0
 69 68  1  0  0  0  0
 70 69  1  0  0  0  0
 71 70  1  0  0  0  0
 72 71  1  0  0  0  0
 73 72  1  0  0  0  0
 80 75  1  0  0  0  0
 76 75  1  0  0  0  0
 77 76  1  0  0  0  0
 78 77  1  0  0  0  0
 79 78  1  0  0  0  0
  1  2  1  0  0  0  0
  2  3  1  0  0  0  0
  3  4  1  0  0  0  0
  4  5  1  0  0  0  0
  5  6  1  0  0  0  0
  6  7  1  0  0  0  0
  7  8  1  0  0  0  0
  8  9  1  0  0  0  0
  9 10  1  0  0  0  0
 10 11  1  0  0  0  0
 11 12  1  0  0  0  0
 12 13  1  0  0  0  0
 13 14  1  0  0  0  0
 14 15  1  0  0  0  0
 15 16  1  0  0  0  0
  1 17  2  0  0  0  0
  1 18  1  0  0  0  0
 20 21  1  0  0  0  0
 21 22  1  0  0  0  0
 22 23  1  0  0  0  0
 23 24  1  0  0  0  0
 24 25  1  0  0  0  0
 20 25  1  0  0  0  0
 25 26  1  1  0  0  0
 24 27  1  6  0  0  0
 23 28  1  1  0  0  0
 30 31  1  0  0  0  0
 31 32  1  0  0  0  0
 32 33  1  0  0  0  0
 33 34  1  0  0  0  0
 34 35  1  0  0  0  0
 30 35  1  0  0  0  0
 36 37  1  0  0  0  0
 35 36  1  1  0  0  0
 34 38  1  6  0  0  0
 33 39  1  1  0  0  0
 41 42  1  0  0  0  0
 42 43  1  0  0  0  0
 43 44  1  0  0  0  0
 44 45  1  0  0  0  0
 45 46  1  0  0  0  0
 41 46  1  0  0  0  0
 48 49  1  0  0  0  0
 49 50  1  0  0  0  0
 50 51  1  0  0  0  0
 51 52  1  0  0  0  0
 52 53  1  0  0  0  0
 48 53  1  0  0  0  0
 53 54  1  1  0  0  0
 52 55  1  1  0  0  0
 51 56  1  1  0  0  0
 50 57  1  6  0  0  0
 49 47  1  1  0  0  0
 45 47  1  1  0  0  0
 46 58  1  6  0  0  0
 43 59  1  6  0  0  0
 80 79  1  0  0  0  0
 60 63  1  0  0  0  0
 44 81  1  6  0  0  0
 42 40  1  1  0  0  0
 32 40  1  6  0  0  0
 31 29  1  1  0  0  0
 22 29  1  6  0  0  0
 21 19  1  1  0  0  0
 11 19  1  6  0  0  0
M  END
>  <cdx:fragmentId>
139

$$$$
