97983.cdx
  Mrv1902 05222410182D          

 24 26  0  0  0  0            999 V2000
    4.1987   -5.8850    0.0000 C   0  0  0  0  0  0  0  0  0  0  0  0
    4.1987   -6.7100    0.0000 C   0  0  0  0  0  0  0  0  0  0  0  0
    4.9131   -7.1225    0.0000 C   0  0  0  0  0  0  0  0  0  0  0  0
    5.6276   -6.7100    0.0000 C   0  0  0  0  0  0  0  0  0  0  0  0
    5.6276   -5.8850    0.0000 C   0  0  0  0  0  0  0  0  0  0  0  0
    4.9131   -5.4725    0.0000 C   0  0  0  0  0  0  0  0  0  0  0  0
    6.3421   -7.1225    0.0000 C   0  0  0  0  0  0  0  0  0  0  0  0
    7.0566   -6.7100    0.0000 C   0  0  0  0  0  0  0  0  0  0  0  0
    7.0566   -5.8850    0.0000 C   0  0  0  0  0  0  0  0  0  0  0  0
    6.3421   -5.4725    0.0000 O   0  0  0  0  0  0  0  0  0  0  0  0
    6.3421   -7.9475    0.0000 O   0  0  0  0  0  0  0  0  0  0  0  0
    7.7710   -7.1225    0.0000 C   0  0  0  0  0  0  0  0  0  0  0  0
    8.4855   -6.7100    0.0000 C   0  0  0  0  0  0  0  0  0  0  0  0
    9.2000   -7.1225    0.0000 C   0  0  0  0  0  0  0  0  0  0  0  0
    9.9144   -6.7100    0.0000 C   0  0  0  0  0  0  0  0  0  0  0  0
    9.9144   -5.8850    0.0000 C   0  0  0  0  0  0  0  0  0  0  0  0
    9.2000   -5.4725    0.0000 C   0  0  0  0  0  0  0  0  0  0  0  0
    8.4855   -5.8850    0.0000 C   0  0  0  0  0  0  0  0  0  0  0  0
    4.9131   -7.9475    0.0000 O   0  0  0  0  0  0  0  0  0  0  0  0
   10.6289   -7.1225    0.0000 O   0  0  0  0  0  0  0  0  0  0  0  0
    3.4842   -5.4725    0.0000 O   0  0  0  0  0  0  0  0  0  0  0  0
    2.7697   -5.8850    0.0000 C   0  0  0  0  0  0  0  0  0  0  0  0
   10.6289   -5.4725    0.0000 O   0  0  0  0  0  0  0  0  0  0  0  0
   11.3434   -5.8850    0.0000 C   0  0  0  0  0  0  0  0  0  0  0  0
  1  2  2  0  0  0  0
  2  3  1  0  0  0  0
  3  4  2  0  0  0  0
  4  5  1  0  0  0  0
  5  6  2  0  0  0  0
  6  1  1  0  0  0  0
  4  7  1  0  0  0  0
  7  8  1  0  0  0  0
  8  9  1  0  0  0  0
  9 10  1  0  0  0  0
 10  5  1  0  0  0  0
  7 11  2  0  0  0  0
  8 12  1  0  0  0  0
 12 13  1  0  0  0  0
 13 14  2  0  0  0  0
 14 15  1  0  0  0  0
 15 16  2  0  0  0  0
 16 17  1  0  0  0  0
 17 18  2  0  0  0  0
 18 13  1  0  0  0  0
  3 19  1  0  0  0  0
 15 20  1  0  0  0  0
  1 21  1  0  0  0  0
 21 22  1  0  0  0  0
 16 23  1  0  0  0  0
 23 24  1  0  0  0  0
M  END
>  <cdx:fragmentId>
5

$$$$
