97996.cdx
  Mrv1902 05222410182D          

 26 29  0  0  0  0            999 V2000
    4.2674   -6.1737    0.0000 C   0  0  0  0  0  0  0  0  0  0  0  0
    4.2674   -6.9988    0.0000 C   0  0  0  0  0  0  0  0  0  0  0  0
    4.9819   -7.4112    0.0000 C   0  0  0  0  0  0  0  0  0  0  0  0
    5.6964   -6.9988    0.0000 C   0  0  0  0  0  0  0  0  0  0  0  0
    5.6964   -6.1737    0.0000 C   0  0  0  0  0  0  0  0  0  0  0  0
    4.9819   -5.7612    0.0000 C   0  0  0  0  0  0  0  0  0  0  0  0
    6.4108   -7.4112    0.0000 C   0  0  0  0  0  0  0  0  0  0  0  0
    7.1253   -6.9988    0.0000 C   0  0  0  0  0  0  0  0  0  0  0  0
    7.1253   -6.1737    0.0000 C   0  0  0  0  0  0  0  0  0  0  0  0
    6.4108   -5.7612    0.0000 O   0  0  0  0  0  0  0  0  0  0  0  0
    6.4108   -8.2363    0.0000 O   0  0  0  0  0  0  0  0  0  0  0  0
    7.8398   -7.4112    0.0000 C   0  0  0  0  0  0  0  0  0  0  0  0
    8.5543   -6.9988    0.0000 C   0  0  0  0  0  0  0  0  0  0  0  0
    9.2687   -7.4112    0.0000 C   0  0  0  0  0  0  0  0  0  0  0  0
    9.9832   -6.9988    0.0000 C   0  0  0  0  0  0  0  0  0  0  0  0
    9.9832   -6.1737    0.0000 C   0  0  0  0  0  0  0  0  0  0  0  0
    9.2687   -5.7612    0.0000 C   0  0  0  0  0  0  0  0  0  0  0  0
    8.5543   -6.1737    0.0000 C   0  0  0  0  0  0  0  0  0  0  0  0
    3.5530   -5.7612    0.0000 O   0  0  0  0  0  0  0  0  0  0  0  0
    4.9819   -8.2363    0.0000 O   0  0  0  0  0  0  0  0  0  0  0  0
    4.2674   -8.6487    0.0000 C   0  0  0  0  0  0  0  0  0  0  0  0
   10.7678   -7.2537    0.0000 O   0  0  0  0  0  0  0  0  0  0  0  0
   11.2527   -6.5863    0.0000 C   0  0  0  0  0  0  0  0  0  0  0  0
   10.7678   -5.9188    0.0000 O   0  0  0  0  0  0  0  0  0  0  0  0
    3.5530   -7.4112    0.0000 C   0  0  0  0  0  0  0  0  0  0  0  0
    4.9819   -4.9363    0.0000 C   0  0  0  0  0  0  0  0  0  0  0  0
  1  2  2  0  0  0  0
  2  3  1  0  0  0  0
  3  4  2  0  0  0  0
  4  5  1  0  0  0  0
  5  6  2  0  0  0  0
  6  1  1  0  0  0  0
  4  7  1  0  0  0  0
  7  8  1  0  0  0  0
  8  9  1  0  0  0  0
  9 10  1  0  0  0  0
 10  5  1  0  0  0  0
  7 11  2  0  0  0  0
  8 12  1  0  0  0  0
 12 13  1  0  0  0  0
 13 14  2  0  0  0  0
 14 15  1  0  0  0  0
 15 16  2  0  0  0  0
 16 17  1  0  0  0  0
 17 18  2  0  0  0  0
 18 13  1  0  0  0  0
  1 19  1  0  0  0  0
  3 20  1  0  0  0  0
 20 21  1  0  0  0  0
 15 22  1  0  0  0  0
 22 23  1  0  0  0  0
 23 24  1  0  0  0  0
 24 16  1  0  0  0  0
  2 25  1  0  0  0  0
  6 26  1  0  0  0  0
M  END
>  <cdx:fragmentId>
5

$$$$
