97997.cdx
  Mrv1902 05222410182D          

 24 26  0  0  0  0            999 V2000
    7.2729   -8.3643    0.0000 O   0  0  0  0  0  0  0  0  0  0  0  0
    7.7578   -9.0317    0.0000 C   0  0  0  0  0  0  0  0  0  0  0  0
    7.2729   -9.6992    0.0000 C   0  0  0  0  0  0  0  0  0  0  0  0
    6.4883   -9.4442    0.0000 C   0  0  0  0  0  0  0  0  0  0  0  0
    5.7738   -9.8567    0.0000 C   0  0  0  0  0  0  0  0  0  0  0  0
    5.0593   -9.4442    0.0000 C   0  0  0  0  0  0  0  0  0  0  0  0
    5.0593   -8.6192    0.0000 C   0  0  0  0  0  0  0  0  0  0  0  0
    5.7738   -8.2067    0.0000 C   0  0  0  0  0  0  0  0  0  0  0  0
    6.4883   -8.6192    0.0000 C   0  0  0  0  0  0  0  0  0  0  0  0
    4.3449   -9.8567    0.0000 C   0  0  0  0  0  0  0  0  0  0  0  0
    3.6304   -9.4442    0.0000 C   0  0  0  0  0  0  0  0  0  0  0  0
    2.9159   -9.8567    0.0000 C   0  0  0  0  0  0  0  0  0  0  0  0
    5.7738   -7.3817    0.0000 O   0  0  0  0  0  0  0  0  0  0  0  0
    5.0593   -6.9692    0.0000 C   0  0  0  0  0  0  0  0  0  0  0  0
    8.5828   -9.0317    0.0000 C   0  0  0  0  0  0  0  0  0  0  0  0
    8.9953   -8.3173    0.0000 C   0  0  0  0  0  0  0  0  0  0  0  0
    9.8203   -8.3173    0.0000 C   0  0  0  0  0  0  0  0  0  0  0  0
   10.2328   -9.0317    0.0000 C   0  0  0  0  0  0  0  0  0  0  0  0
    9.8203   -9.7462    0.0000 C   0  0  0  0  0  0  0  0  0  0  0  0
    8.9953   -9.7462    0.0000 C   0  0  0  0  0  0  0  0  0  0  0  0
   11.0578   -9.0317    0.0000 O   0  0  0  0  0  0  0  0  0  0  0  0
   11.4703   -8.3173    0.0000 C   0  0  0  0  0  0  0  0  0  0  0  0
   10.2328   -7.6028    0.0000 O   0  0  0  0  0  0  0  0  0  0  0  0
   11.0578   -7.6028    0.0000 C   0  0  0  0  0  0  0  0  0  0  0  0
  1  2  1  0  0  0  0
  2  3  1  0  0  0  0
  3  4  1  0  0  0  0
  4  5  1  0  0  0  0
  5  6  2  0  0  0  0
  6  7  1  0  0  0  0
  7  8  2  0  0  0  0
  8  9  1  0  0  0  0
  4  9  2  0  0  0  0
  1  9  1  0  0  0  0
 10 11  2  3  0  0  0
 11 12  1  0  0  0  0
  6 10  1  0  0  0  0
 13 14  1  0  0  0  0
  8 13  1  0  0  0  0
 15 16  1  0  0  0  0
 16 17  2  0  0  0  0
 17 18  1  0  0  0  0
 18 19  2  0  0  0  0
 19 20  1  0  0  0  0
 15 20  2  0  0  0  0
 21 22  1  0  0  0  0
 18 21  1  0  0  0  0
 23 24  1  0  0  0  0
 17 23  1  0  0  0  0
  2 15  1  0  0  0  0
M  END
>  <cdx:fragmentId>
5

$$$$
