97994.cdx
  Mrv1902 05222410182D          

 25 28  0  0  0  0            999 V2000
    4.4874   -7.3563    0.0000 C   0  0  0  0  0  0  0  0  0  0  0  0
    4.4874   -8.1813    0.0000 C   0  0  0  0  0  0  0  0  0  0  0  0
    5.2019   -8.5938    0.0000 C   0  0  0  0  0  0  0  0  0  0  0  0
    5.9164   -8.1813    0.0000 C   0  0  0  0  0  0  0  0  0  0  0  0
    5.9164   -7.3563    0.0000 C   0  0  0  0  0  0  0  0  0  0  0  0
    5.2019   -6.9438    0.0000 C   0  0  0  0  0  0  0  0  0  0  0  0
    6.6308   -8.5938    0.0000 C   0  0  0  0  0  0  0  0  0  0  0  0
    7.3453   -8.1813    0.0000 C   0  0  0  0  0  0  0  0  0  0  0  0
    7.3453   -7.3563    0.0000 C   0  0  0  0  0  0  0  0  0  0  0  0
    6.6308   -6.9438    0.0000 O   0  0  0  0  0  0  0  0  0  0  0  0
    6.6308   -9.4187    0.0000 O   0  0  0  0  0  0  0  0  0  0  0  0
    8.0598   -8.5938    0.0000 C   0  0  0  0  0  0  0  0  0  0  0  0
    8.7743   -8.1813    0.0000 C   0  0  0  0  0  0  0  0  0  0  0  0
    9.4887   -8.5938    0.0000 C   0  0  0  0  0  0  0  0  0  0  0  0
   10.2032   -8.1813    0.0000 C   0  0  0  0  0  0  0  0  0  0  0  0
   10.2032   -7.3563    0.0000 C   0  0  0  0  0  0  0  0  0  0  0  0
    9.4887   -6.9437    0.0000 C   0  0  0  0  0  0  0  0  0  0  0  0
    8.7743   -7.3563    0.0000 C   0  0  0  0  0  0  0  0  0  0  0  0
    5.2019   -9.4187    0.0000 O   0  0  0  0  0  0  0  0  0  0  0  0
    3.7730   -6.9438    0.0000 O   0  0  0  0  0  0  0  0  0  0  0  0
    3.0585   -7.3563    0.0000 C   0  0  0  0  0  0  0  0  0  0  0  0
   10.9878   -8.4362    0.0000 O   0  0  0  0  0  0  0  0  0  0  0  0
   11.4727   -7.7687    0.0000 C   0  0  0  0  0  0  0  0  0  0  0  0
   10.9878   -7.1013    0.0000 O   0  0  0  0  0  0  0  0  0  0  0  0
    3.7730   -8.5937    0.0000 C   0  0  0  0  0  0  0  0  0  0  0  0
  1  2  2  0  0  0  0
  2  3  1  0  0  0  0
  3  4  2  0  0  0  0
  4  5  1  0  0  0  0
  5  6  2  0  0  0  0
  6  1  1  0  0  0  0
  4  7  1  0  0  0  0
  7  8  1  0  0  0  0
  8  9  1  0  0  0  0
  9 10  1  0  0  0  0
 10  5  1  0  0  0  0
  7 11  2  0  0  0  0
  8 12  1  0  0  0  0
 12 13  1  0  0  0  0
 13 14  2  0  0  0  0
 14 15  1  0  0  0  0
 15 16  2  0  0  0  0
 16 17  1  0  0  0  0
 17 18  2  0  0  0  0
 18 13  1  0  0  0  0
  3 19  1  0  0  0  0
  1 20  1  0  0  0  0
 20 21  1  0  0  0  0
 15 22  1  0  0  0  0
 22 23  1  0  0  0  0
 23 24  1  0  0  0  0
 24 16  1  0  0  0  0
  2 25  1  0  0  0  0
M  END
>  <cdx:fragmentId>
5

$$$$
