97998.cdx
  Mrv1902 05222410272D          

 11 12  0  0  0  0            999 V2000
    6.4949   -7.3700    0.0000 C   0  0  1  0  0  0  0  0  0  0  0  0
    6.4949   -8.1950    0.0000 C   0  0  0  0  0  0  0  0  0  0  0  0
    7.2094   -8.6075    0.0000 C   0  0  0  0  0  0  0  0  0  0  0  0
    7.9239   -8.1950    0.0000 C   0  0  2  0  0  0  0  0  0  0  0  0
    7.9239   -7.3700    0.0000 N   0  0  0  0  0  0  0  0  0  0  0  0
    7.2094   -6.9575    0.0000 C   0  0  0  0  0  0  0  0  0  0  0  0
    7.2094   -6.1325    0.0000 O   0  0  0  0  0  0  0  0  0  0  0  0
    6.8995   -7.8021    0.0000 C   0  0  0  0  0  0  0  0  0  0  0  0
    7.5664   -7.7005    0.0000 C   0  0  0  0  0  0  0  0  0  0  0  0
    5.7805   -6.9575    0.0000 O   0  0  0  0  0  0  0  0  0  0  0  0
    8.6383   -8.6075    0.0000 H   0  0  0  0  0  0  0  0  0  0  0  0
  1  2  1  0  0  0  0
  2  3  2  0  0  0  0
  3  4  1  0  0  0  0
  4  5  1  0  0  0  0
  5  6  1  0  0  0  0
  6  1  1  0  0  0  0
  6  7  2  0  0  0  0
  1  8  1  0  0  0  0
  4  9  1  0  0  0  0
  8  9  1  0  0  0  0
  1 10  1  6  0  0  0
  4 11  1  6  0  0  0
M  END
>  <cdx:fragmentId>
5

$$$$
