98.cdx
  Mrv1902 05222410212D          

 52 56  0  0  0  0            999 V2000
   14.3813  -10.3586    0.0000 C   0  0  0  0  0  0  0  0  0  0  0  0
   14.3813  -11.1836    0.0000 C   0  0  1  0  0  0  0  0  0  0  0  0
   15.0958  -11.5961    0.0000 C   0  0  0  0  0  0  0  0  0  0  0  0
   15.8102  -11.1836    0.0000 C   0  0  2  0  0  0  0  0  0  0  0  0
   15.8102  -10.3586    0.0000 C   0  0  2  0  0  0  0  0  0  0  0  0
   15.0958   -9.9461    0.0000 C   0  0  0  0  0  0  0  0  0  0  0  0
   16.5247  -11.5961    0.0000 C   0  0  0  0  0  0  0  0  0  0  0  0
   17.2392  -11.1836    0.0000 C   0  0  0  0  0  0  0  0  0  0  0  0
   17.2392  -10.3586    0.0000 C   0  0  2  0  0  0  0  0  0  0  0  0
   16.5247   -9.9461    0.0000 C   0  0  0  0  0  0  0  0  0  0  0  0
   17.9537   -9.9461    0.0000 C   0  0  2  0  0  0  0  0  0  0  0  0
   17.9537   -9.1211    0.0000 C   0  0  2  0  0  0  0  0  0  0  0  0
   17.2392   -8.7086    0.0000 C   0  0  0  0  0  0  0  0  0  0  0  0
   16.5247   -9.1211    0.0000 C   0  0  0  0  0  0  0  0  0  0  0  0
   18.7383  -10.2011    0.0000 C   0  0  0  0  0  0  0  0  0  0  0  0
   19.2232   -9.5336    0.0000 C   0  0  0  0  0  0  0  0  0  0  0  0
   18.7383   -8.8662    0.0000 C   0  0  2  0  0  0  0  0  0  0  0  0
   18.9932   -8.0816    0.0000 C   0  0  0  0  0  0  0  0  0  0  0  0
   19.8002   -7.9101    0.0000 C   0  0  0  0  0  0  0  0  0  0  0  0
   18.4412   -7.4685    0.0000 C   0  0  0  0  0  0  0  0  0  0  0  0
   20.0551   -7.1254    0.0000 C   0  0  0  0  0  0  0  0  0  0  0  0
   18.6961   -6.6839    0.0000 O   0  0  0  0  0  0  0  0  0  0  0  0
   19.5031   -6.5123    0.0000 C   0  0  0  0  0  0  0  0  0  0  0  0
   19.7580   -5.7277    0.0000 O   0  0  0  0  0  0  0  0  0  0  0  0
   13.6668  -11.5961    0.0000 O   0  0  0  0  0  0  0  0  0  0  0  0
   15.8102   -9.5336    0.0000 C   0  0  0  0  0  0  0  0  0  0  0  0
   15.8102  -12.0086    0.0000 H   0  0  0  0  0  0  0  0  0  0  0  0
   18.0399   -8.3007    0.0000 C   0  0  0  0  0  0  0  0  0  0  0  0
   18.0399  -10.7666    0.0000 O   0  0  0  0  0  0  0  0  0  0  0  0
   15.8102   -8.7086    0.0000 O   0  0  0  0  0  0  0  0  0  0  0  0
   17.2392   -7.8836    0.0000 O   0  0  0  0  0  0  0  0  0  0  0  0
   12.9524  -11.1836    0.0000 C   0  0  0  0  0  0  0  0  0  0  0  0
   12.2379  -11.5961    0.0000 C   0  0  0  0  0  0  0  0  0  0  0  0
   12.9524  -10.3586    0.0000 O   0  0  0  0  0  0  0  0  0  0  0  0
   11.5234  -11.1836    0.0000 C   0  0  0  0  0  0  0  0  0  0  0  0
   10.8089  -11.5961    0.0000 C   0  0  0  0  0  0  0  0  0  0  0  0
   10.0945  -11.1836    0.0000 C   0  0  0  0  0  0  0  0  0  0  0  0
    9.3800  -11.5961    0.0000 C   0  0  0  0  0  0  0  0  0  0  0  0
    8.6655  -11.1836    0.0000 N   0  0  0  0  0  0  0  0  0  0  0  0
    9.3800  -12.4211    0.0000 O   0  0  0  0  0  0  0  0  0  0  0  0
    7.9511  -11.5961    0.0000 C   0  0  2  0  0  0  0  0  0  0  0  0
    7.2366  -11.1836    0.0000 C   0  0  0  0  0  0  0  0  0  0  0  0
    6.5221  -11.5961    0.0000 O   0  0  0  0  0  0  0  0  0  0  0  0
    7.2366  -10.3586    0.0000 O   0  0  0  0  0  0  0  0  0  0  0  0
    7.9511  -12.4211    0.0000 C   0  0  0  0  0  0  0  0  0  0  0  0
    7.2366  -12.8336    0.0000 C   0  0  0  0  0  0  0  0  0  0  0  0
    7.2366  -13.6586    0.0000 C   0  0  0  0  0  0  0  0  0  0  0  0
    6.5221  -14.0711    0.0000 N   0  0  0  0  0  0  0  0  0  0  0  0
    6.5221  -14.8961    0.0000 C   0  0  0  0  0  0  0  0  0  0  0  0
    7.2366  -15.3086    0.0000 N   0  0  0  0  0  0  0  0  0  0  0  0
    5.8076  -15.3086    0.0000 N   0  0  0  0  0  0  0  0  0  0  0  0
   17.2392   -9.5336    0.0000 H   0  0  0  0  0  0  0  0  0  0  0  0
  1  2  1  0  0  0  0
  2  3  1  0  0  0  0
  3  4  1  0  0  0  0
  4  5  1  0  0  0  0
  5  6  1  0  0  0  0
  6  1  1  0  0  0  0
  4  7  1  0  0  0  0
  7  8  1  0  0  0  0
  8  9  1  0  0  0  0
  9 10  1  0  0  0  0
 10  5  1  0  0  0  0
  9 11  1  0  0  0  0
 11 12  1  0  0  0  0
 12 13  1  0  0  0  0
 13 14  1  0  0  0  0
 14 10  2  0  0  0  0
 11 15  1  0  0  0  0
 15 16  1  0  0  0  0
 16 17  1  0  0  0  0
 17 12  1  0  0  0  0
 17 18  1  1  0  0  0
 18 19  1  0  0  0  0
 18 20  2  0  0  0  0
 19 21  2  0  0  0  0
 20 22  1  0  0  0  0
 21 23  1  0  0  0  0
 22 23  1  0  0  0  0
 23 24  2  0  0  0  0
  2 25  1  1  0  0  0
  5 26  1  1  0  0  0
  4 27  1  1  0  0  0
 12 28  1  1  0  0  0
 11 29  1  1  0  0  0
 14 30  1  1  0  0  0
 13 31  2  0  0  0  0
 25 32  1  0  0  0  0
 32 33  1  0  0  0  0
 32 34  2  0  0  0  0
 33 35  1  0  0  0  0
 35 36  1  0  0  0  0
 36 37  1  0  0  0  0
 37 38  1  0  0  0  0
 38 39  1  0  0  0  0
 38 40  2  0  0  0  0
 41 39  1  1  0  0  0
 41 42  1  0  0  0  0
 42 43  1  0  0  0  0
 42 44  2  0  0  0  0
 41 45  1  0  0  0  0
 45 46  1  0  0  0  0
 46 47  1  0  0  0  0
 47 48  1  0  0  0  0
 48 49  2  0  0  0  0
 49 50  1  0  0  0  0
 49 51  1  0  0  0  0
  9 52  1  1  0  0  0
M  END
>  <cdx:fragmentId>
287

$$$$
