98001.cdx
  Mrv1902 05222410252D          

 46 51  0  0  0  0            999 V2000
    3.7953   -7.2462    0.0000 C   0  0  2  0  0  0  0  0  0  0  0  0
    3.7953   -8.0713    0.0000 C   0  0  2  0  0  0  0  0  0  0  0  0
    4.4403   -8.5856    0.0000 C   0  0  1  0  0  0  0  0  0  0  0  0
    5.2447   -8.4020    0.0000 C   0  0  1  0  0  0  0  0  0  0  0  0
    5.6026   -7.6587    0.0000 C   0  0  2  0  0  0  0  0  0  0  0  0
    5.2447   -6.9155    0.0000 C   0  0  2  0  0  0  0  0  0  0  0  0
    4.4403   -6.7319    0.0000 C   0  0  2  0  0  0  0  0  0  0  0  0
    5.8058   -6.3107    0.0000 C   0  0  2  0  0  0  0  0  0  0  0  0
    5.5626   -5.5223    0.0000 C   0  0  2  0  0  0  0  0  0  0  0  0
    4.7583   -5.3388    0.0000 C   0  0  1  0  0  0  0  0  0  0  0  0
    4.1972   -5.9435    0.0000 C   0  0  1  0  0  0  0  0  0  0  0  0
    3.0107   -6.9913    0.0000 C   0  0  0  0  0  0  0  0  0  0  0  0
    2.5258   -7.6587    0.0000 C   0  0  0  0  0  0  0  0  0  0  0  0
    3.0107   -8.3262    0.0000 C   0  0  0  0  0  0  0  0  0  0  0  0
    1.7008   -7.6587    0.0000 C   0  0  0  0  0  0  0  0  0  0  0  0
    2.7558   -9.1108    0.0000 O   0  0  0  0  0  0  0  0  0  0  0  0
    5.2447   -9.2270    0.0000 C   0  0  0  0  0  0  0  0  0  0  0  0
    5.9591   -9.6395    0.0000 O   0  0  0  0  0  0  0  0  0  0  0  0
    3.7337   -6.4236    0.0000 H   0  0  0  0  0  0  0  0  0  0  0  0
    3.3929   -5.7599    0.0000 C   0  0  0  0  0  0  0  0  0  0  0  0
    6.6307   -6.3107    0.0000 O   0  0  0  0  0  0  0  0  0  0  0  0
    6.8974   -5.5223    0.0000 C   0  0  0  0  0  0  0  0  0  0  0  0
    6.2372   -5.0275    0.0000 O   0  0  0  0  0  0  0  0  0  0  0  0
    6.0151   -8.3732    0.0000 O   0  0  0  0  0  0  0  0  0  0  0  0
    5.0237   -6.1485    0.0000 O   0  0  0  0  0  0  0  0  0  0  0  0
    4.5151   -4.5504    0.0000 O   0  0  0  0  0  0  0  0  0  0  0  0
    6.0604   -7.0384    0.0000 H   0  0  0  0  0  0  0  0  0  0  0  0
    4.2568   -9.3899    0.0000 O   0  0  0  0  0  0  0  0  0  0  0  0
    3.5818   -8.8681    0.0000 O   0  0  0  0  0  0  0  0  0  0  0  0
    7.6853   -5.2780    0.0000 C   0  0  0  0  0  0  0  0  0  0  0  0
    8.2909   -5.8382    0.0000 C   0  0  0  0  0  0  0  0  0  0  0  0
    9.0789   -5.5939    0.0000 C   0  0  0  0  0  0  0  0  0  0  0  0
    9.6845   -6.1541    0.0000 C   0  0  0  0  0  0  0  0  0  0  0  0
   10.4725   -5.9098    0.0000 C   0  0  0  0  0  0  0  0  0  0  0  0
   11.0781   -6.4701    0.0000 C   0  0  0  0  0  0  0  0  0  0  0  0
   11.8661   -6.2257    0.0000 C   0  0  0  0  0  0  0  0  0  0  0  0
   12.4717   -6.7860    0.0000 C   0  0  0  0  0  0  0  0  0  0  0  0
   13.2597   -6.5416    0.0000 C   0  0  0  0  0  0  0  0  0  0  0  0
    3.7183   -4.3369    0.0000 C   0  0  0  0  0  0  0  0  0  0  0  0
    3.5047   -3.5400    0.0000 O   0  0  0  0  0  0  0  0  0  0  0  0
    3.1349   -4.9202    0.0000 C   0  0  0  0  0  0  0  0  0  0  0  0
    2.3380   -4.7067    0.0000 C   0  0  0  0  0  0  0  0  0  0  0  0
    3.1349   -5.7452    0.0000 C   0  0  0  0  0  0  0  0  0  0  0  0
    5.5626   -4.6973    0.0000 C   0  0  0  0  0  0  0  0  0  0  0  0
    4.8482   -4.2848    0.0000 C   0  0  0  0  0  0  0  0  0  0  0  0
    6.2771   -4.2848    0.0000 C   0  0  0  0  0  0  0  0  0  0  0  0
  1  2  1  0  0  0  0
  2  3  1  0  0  0  0
  3  4  1  0  0  0  0
  4  5  1  0  0  0  0
  5  6  1  0  0  0  0
  6  7  1  0  0  0  0
  7  1  1  0  0  0  0
  6  8  1  0  0  0  0
  8  9  1  0  0  0  0
  9 10  1  0  0  0  0
 10 11  1  0  0  0  0
 11  7  1  0  0  0  0
  1 12  1  0  0  0  0
 12 13  2  0  0  0  0
 13 14  1  0  0  0  0
 14  2  1  0  0  0  0
 13 15  1  0  0  0  0
 14 16  2  0  0  0  0
  4 17  1  0  0  0  0
 17 18  1  0  0  0  0
  1 19  1  6  0  0  0
 11 20  1  6  0  0  0
  8 21  1  6  0  0  0
 21 22  1  0  0  0  0
 22 23  1  0  0  0  0
  9 23  1  6  0  0  0
  5 24  1  6  0  0  0
  4 24  1  6  0  0  0
  7 25  1  6  0  0  0
 10 26  1  1  0  0  0
  6 27  1  1  0  0  0
  3 28  1  1  0  0  0
  2 29  1  1  0  0  0
 25 22  1  0  0  0  0
 22 30  1  0  0  0  0
 30 31  2  0  0  0  0
 31 32  1  0  0  0  0
 32 33  2  0  0  0  0
 33 34  1  0  0  0  0
 34 35  1  0  0  0  0
 35 36  1  0  0  0  0
 36 37  1  0  0  0  0
 37 38  1  0  0  0  0
 26 39  1  0  0  0  0
 39 40  2  0  0  0  0
 39 41  1  0  0  0  0
 41 42  1  0  0  0  0
 41 43  1  0  0  0  0
  9 44  1  0  0  0  0
 44 45  1  0  0  0  0
 44 46  2  0  0  0  0
M  END
>  <cdx:fragmentId>
5

$$$$
