98002.cdx
  Mrv1902 05222410252D          

 46 53  0  0  0  0            999 V2000
    5.4866   -9.8588    0.0000 C   0  0  2  0  0  0  0  0  0  0  0  0
    5.4866  -10.6837    0.0000 C   0  0  2  0  0  0  0  0  0  0  0  0
    6.1316  -11.1981    0.0000 C   0  0  1  0  0  0  0  0  0  0  0  0
    6.9359  -11.0145    0.0000 C   0  0  1  0  0  0  0  0  0  0  0  0
    7.2939  -10.2713    0.0000 C   0  0  2  0  0  0  0  0  0  0  0  0
    6.9359   -9.5280    0.0000 C   0  0  2  0  0  0  0  0  0  0  0  0
    6.1316   -9.3444    0.0000 C   0  0  2  0  0  0  0  0  0  0  0  0
    7.4971   -8.9232    0.0000 C   0  0  2  0  0  0  0  0  0  0  0  0
    7.2539   -8.1348    0.0000 C   0  0  2  0  0  0  0  0  0  0  0  0
    6.4496   -7.9513    0.0000 C   0  0  1  0  0  0  0  0  0  0  0  0
    5.8884   -8.5560    0.0000 C   0  0  1  0  0  0  0  0  0  0  0  0
    4.7020   -9.6038    0.0000 C   0  0  0  0  0  0  0  0  0  0  0  0
    4.2170  -10.2713    0.0000 C   0  0  0  0  0  0  0  0  0  0  0  0
    4.7020  -10.9387    0.0000 C   0  0  0  0  0  0  0  0  0  0  0  0
    3.3920  -10.2713    0.0000 C   0  0  0  0  0  0  0  0  0  0  0  0
    4.4470  -11.7233    0.0000 O   0  0  0  0  0  0  0  0  0  0  0  0
    6.9359  -11.8395    0.0000 C   0  0  0  0  0  0  0  0  0  0  0  0
    7.6504  -12.2520    0.0000 O   0  0  0  0  0  0  0  0  0  0  0  0
    5.4249   -9.0361    0.0000 H   0  0  0  0  0  0  0  0  0  0  0  0
    5.0841   -8.3724    0.0000 C   0  0  0  0  0  0  0  0  0  0  0  0
    8.3220   -8.9232    0.0000 O   0  0  0  0  0  0  0  0  0  0  0  0
    8.5886   -8.1348    0.0000 C   0  0  0  0  0  0  0  0  0  0  0  0
    7.9285   -7.6400    0.0000 O   0  0  0  0  0  0  0  0  0  0  0  0
    7.7064  -10.9857    0.0000 O   0  0  0  0  0  0  0  0  0  0  0  0
    6.7150   -8.7610    0.0000 O   0  0  0  0  0  0  0  0  0  0  0  0
    6.2064   -7.1629    0.0000 O   0  0  0  0  0  0  0  0  0  0  0  0
    7.7517   -9.6509    0.0000 H   0  0  0  0  0  0  0  0  0  0  0  0
    5.9480  -12.0024    0.0000 O   0  0  0  0  0  0  0  0  0  0  0  0
    5.4249  -11.5064    0.0000 O   0  0  0  0  0  0  0  0  0  0  0  0
    9.3766   -7.8905    0.0000 C   0  0  0  0  0  0  0  0  0  0  0  0
    5.4095   -6.9494    0.0000 C   0  0  0  0  0  0  0  0  0  0  0  0
    5.1960   -6.1525    0.0000 C   0  0  0  0  0  0  0  0  0  0  0  0
    4.8261   -7.5327    0.0000 O   0  0  0  0  0  0  0  0  0  0  0  0
    9.9822   -8.4507    0.0000 C   0  0  0  0  0  0  0  0  0  0  0  0
   10.7702   -8.2064    0.0000 C   0  0  0  0  0  0  0  0  0  0  0  0
   10.9526   -7.4018    0.0000 C   0  0  0  0  0  0  0  0  0  0  0  0
   10.3470   -6.8416    0.0000 C   0  0  0  0  0  0  0  0  0  0  0  0
    9.5590   -7.0859    0.0000 C   0  0  0  0  0  0  0  0  0  0  0  0
    5.7793   -5.5691    0.0000 C   0  0  0  0  0  0  0  0  0  0  0  0
    5.5658   -4.7722    0.0000 C   0  0  0  0  0  0  0  0  0  0  0  0
    4.7689   -4.5587    0.0000 C   0  0  0  0  0  0  0  0  0  0  0  0
    4.1856   -5.1421    0.0000 C   0  0  0  0  0  0  0  0  0  0  0  0
    4.3991   -5.9390    0.0000 C   0  0  0  0  0  0  0  0  0  0  0  0
    7.2539   -7.3098    0.0000 C   0  0  0  0  0  0  0  0  0  0  0  0
    6.5394   -6.8973    0.0000 C   0  0  0  0  0  0  0  0  0  0  0  0
    7.9684   -6.8973    0.0000 C   0  0  0  0  0  0  0  0  0  0  0  0
  1  2  1  0  0  0  0
  2  3  1  0  0  0  0
  3  4  1  0  0  0  0
  4  5  1  0  0  0  0
  5  6  1  0  0  0  0
  6  7  1  0  0  0  0
  7  1  1  0  0  0  0
  6  8  1  0  0  0  0
  8  9  1  0  0  0  0
  9 10  1  0  0  0  0
 10 11  1  0  0  0  0
 11  7  1  0  0  0  0
  1 12  1  0  0  0  0
 12 13  2  0  0  0  0
 13 14  1  0  0  0  0
 14  2  1  0  0  0  0
 13 15  1  0  0  0  0
 14 16  2  0  0  0  0
  4 17  1  0  0  0  0
 17 18  1  0  0  0  0
  1 19  1  6  0  0  0
 11 20  1  6  0  0  0
  8 21  1  6  0  0  0
 21 22  1  0  0  0  0
 22 23  1  0  0  0  0
  9 23  1  6  0  0  0
  5 24  1  6  0  0  0
  4 24  1  6  0  0  0
  7 25  1  6  0  0  0
 10 26  1  1  0  0  0
  6 27  1  1  0  0  0
  3 28  1  1  0  0  0
  2 29  1  1  0  0  0
 25 22  1  0  0  0  0
 22 30  1  0  0  0  0
 26 31  1  0  0  0  0
 31 32  1  0  0  0  0
 31 33  2  0  0  0  0
 30 34  2  0  0  0  0
 34 35  1  0  0  0  0
 35 36  2  0  0  0  0
 36 37  1  0  0  0  0
 37 38  2  0  0  0  0
 38 30  1  0  0  0  0
 32 39  2  0  0  0  0
 39 40  1  0  0  0  0
 40 41  2  0  0  0  0
 41 42  1  0  0  0  0
 42 43  2  0  0  0  0
 43 32  1  0  0  0  0
  9 44  1  0  0  0  0
 44 45  1  0  0  0  0
 44 46  2  0  0  0  0
M  END
>  <cdx:fragmentId>
5

$$$$
