98000.cdx
  Mrv1902 05222410252D          

 23 25  0  0  0  0            999 V2000
    4.9824   -7.8650    0.0000 C   0  0  0  0  0  0  0  0  0  0  0  0
    4.9824   -8.6900    0.0000 C   0  0  0  0  0  0  0  0  0  0  0  0
    5.6969   -9.1025    0.0000 C   0  0  0  0  0  0  0  0  0  0  0  0
    6.4114   -8.6900    0.0000 C   0  0  0  0  0  0  0  0  0  0  0  0
    6.4114   -7.8650    0.0000 C   0  0  0  0  0  0  0  0  0  0  0  0
    5.6969   -7.4525    0.0000 C   0  0  0  0  0  0  0  0  0  0  0  0
    7.1258   -9.1025    0.0000 C   0  0  0  0  0  0  0  0  0  0  0  0
    7.8403   -8.6900    0.0000 C   0  0  0  0  0  0  0  0  0  0  0  0
    7.8403   -7.8650    0.0000 C   0  0  0  0  0  0  0  0  0  0  0  0
    7.1258   -7.4525    0.0000 O   0  0  0  0  0  0  0  0  0  0  0  0
    9.2693   -7.8650    0.0000 C   0  0  0  0  0  0  0  0  0  0  0  0
    8.5548   -7.4525    0.0000 C   0  0  0  0  0  0  0  0  0  0  0  0
    9.9837   -7.4525    0.0000 C   0  0  0  0  0  0  0  0  0  0  0  0
    9.9837   -6.6275    0.0000 C   0  0  0  0  0  0  0  0  0  0  0  0
    9.2693   -6.2150    0.0000 C   0  0  0  0  0  0  0  0  0  0  0  0
    8.5548   -6.6275    0.0000 C   0  0  0  0  0  0  0  0  0  0  0  0
    4.2680   -7.4525    0.0000 O   0  0  0  0  0  0  0  0  0  0  0  0
    3.5535   -7.8650    0.0000 C   0  0  0  0  0  0  0  0  0  0  0  0
    4.2680   -9.1025    0.0000 O   0  0  0  0  0  0  0  0  0  0  0  0
    5.6969   -9.9275    0.0000 O   0  0  0  0  0  0  0  0  0  0  0  0
    7.1258   -9.9275    0.0000 O   0  0  0  0  0  0  0  0  0  0  0  0
   10.6982   -6.2150    0.0000 O   0  0  0  0  0  0  0  0  0  0  0  0
    3.5535   -8.6900    0.0000 C   0  0  0  0  0  0  0  0  0  0  0  0
  1  2  2  0  0  0  0
  2  3  1  0  0  0  0
  3  4  2  0  0  0  0
  4  5  1  0  0  0  0
  5  6  2  0  0  0  0
  6  1  1  0  0  0  0
  4  7  1  0  0  0  0
  7  8  1  0  0  0  0
  8  9  2  0  0  0  0
  9 10  1  0  0  0  0
 10  5  1  0  0  0  0
 11 12  2  0  0  0  0
 12  9  1  0  0  0  0
 11 13  1  0  0  0  0
 13 14  2  0  0  0  0
 14 15  1  0  0  0  0
 15 16  2  0  0  0  0
 16 12  1  0  0  0  0
  1 17  1  0  0  0  0
 17 18  1  0  0  0  0
  2 19  1  0  0  0  0
  3 20  1  0  0  0  0
  7 21  2  0  0  0  0
 14 22  1  0  0  0  0
 19 23  1  0  0  0  0
M  END
>  <cdx:fragmentId>
5

$$$$
