98003.cdx
  Mrv1902 05222410252D          

 26 27  0  0  0  0            999 V2000
    4.4874   -7.3563    0.0000 C   0  0  0  0  0  0  0  0  0  0  0  0
    4.4874   -8.1813    0.0000 C   0  0  0  0  0  0  0  0  0  0  0  0
    5.2019   -8.5938    0.0000 C   0  0  0  0  0  0  0  0  0  0  0  0
    5.9164   -8.1813    0.0000 C   0  0  0  0  0  0  0  0  0  0  0  0
    5.9164   -7.3563    0.0000 C   0  0  0  0  0  0  0  0  0  0  0  0
    5.2019   -6.9438    0.0000 C   0  0  0  0  0  0  0  0  0  0  0  0
    6.6308   -8.5938    0.0000 C   0  0  0  0  0  0  0  0  0  0  0  0
    7.3453   -8.1813    0.0000 C   0  0  0  0  0  0  0  0  0  0  0  0
    7.3453   -7.3563    0.0000 C   0  0  0  0  0  0  0  0  0  0  0  0
    6.6308   -6.9438    0.0000 O   0  0  0  0  0  0  0  0  0  0  0  0
    6.6308   -9.4187    0.0000 O   0  0  0  0  0  0  0  0  0  0  0  0
    8.0598   -8.5938    0.0000 C   0  0  0  0  0  0  0  0  0  0  0  0
    8.7743   -8.1813    0.0000 C   0  0  0  0  0  0  0  0  0  0  0  0
    9.4887   -8.5938    0.0000 C   0  0  0  0  0  0  0  0  0  0  0  0
   10.2032   -8.1813    0.0000 C   0  0  0  0  0  0  0  0  0  0  0  0
   10.2032   -7.3563    0.0000 C   0  0  0  0  0  0  0  0  0  0  0  0
    9.4887   -6.9437    0.0000 C   0  0  0  0  0  0  0  0  0  0  0  0
    8.7743   -7.3563    0.0000 C   0  0  0  0  0  0  0  0  0  0  0  0
    5.2019   -9.4187    0.0000 O   0  0  0  0  0  0  0  0  0  0  0  0
   10.9177   -8.5937    0.0000 O   0  0  0  0  0  0  0  0  0  0  0  0
   10.9177   -6.9438    0.0000 O   0  0  0  0  0  0  0  0  0  0  0  0
    3.7730   -6.9438    0.0000 O   0  0  0  0  0  0  0  0  0  0  0  0
    3.7730   -6.1188    0.0000 C   0  0  0  0  0  0  0  0  0  0  0  0
    5.2019   -6.1188    0.0000 C   0  0  0  0  0  0  0  0  0  0  0  0
    5.2431    0.0000    0.0000 C   0  0  0  0  0  0  0  0  0  0  0  0
    5.9576    0.4125    0.0000 C   0  0  0  0  0  0  0  0  0  0  0  0
  1  2  2  0  0  0  0
  2  3  1  0  0  0  0
  3  4  2  0  0  0  0
  4  5  1  0  0  0  0
  5  6  2  0  0  0  0
  6  1  1  0  0  0  0
  4  7  1  0  0  0  0
  7  8  1  0  0  0  0
  8  9  1  0  0  0  0
  9 10  1  0  0  0  0
 10  5  1  0  0  0  0
  7 11  2  0  0  0  0
  8 12  1  0  0  0  0
 12 13  1  0  0  0  0
 13 14  2  0  0  0  0
 14 15  1  0  0  0  0
 15 16  2  0  0  0  0
 16 17  1  0  0  0  0
 17 18  2  0  0  0  0
 18 13  1  0  0  0  0
  3 19  1  0  0  0  0
 15 20  1  0  0  0  0
 16 21  1  0  0  0  0
  1 22  1  0  0  0  0
 22 23  1  0  0  0  0
  6 24  1  0  0  0  0
 25 26  1  0  0  0  0
M  END
>  <cdx:fragmentId>
218

$$$$
