98007.cdx
  Mrv1902 05222410232D          

 45 48  0  0  0  0            999 V2000
    6.7006   -8.0718    0.0000 O   0  0  0  0  0  0  0  0  0  0  0  0
    6.2881   -8.7862    0.0000 C   0  0  1  0  0  0  0  0  0  0  0  0
    6.7006   -9.5007    0.0000 C   0  0  2  0  0  0  0  0  0  0  0  0
    7.5256   -9.5007    0.0000 C   0  0  1  0  0  0  0  0  0  0  0  0
    7.9381   -8.7862    0.0000 C   0  0  2  0  0  0  0  0  0  0  0  0
    7.5256   -8.0718    0.0000 C   0  0  2  0  0  0  0  0  0  0  0  0
    8.7631   -8.7862    0.0000 O   0  0  0  0  0  0  0  0  0  0  0  0
    9.1756   -8.0718    0.0000 O   0  0  0  0  0  0  0  0  0  0  0  0
    8.7631   -7.3573    0.0000 C   0  0  0  0  0  0  0  0  0  0  0  0
    7.9381   -7.3573    0.0000 O   0  0  0  0  0  0  0  0  0  0  0  0
    9.1756   -6.6428    0.0000 C   0  0  0  0  0  0  0  0  0  0  0  0
    8.7631   -5.9284    0.0000 C   0  0  0  0  0  0  0  0  0  0  0  0
   10.0006   -6.6428    0.0000 C   0  0  0  0  0  0  0  0  0  0  0  0
   10.4131   -5.9284    0.0000 C   0  0  0  0  0  0  0  0  0  0  0  0
   10.0006   -5.2139    0.0000 C   0  0  0  0  0  0  0  0  0  0  0  0
    9.1756   -5.2139    0.0000 C   0  0  0  0  0  0  0  0  0  0  0  0
    5.4631   -8.7862    0.0000 C   0  0  0  0  0  0  0  0  0  0  0  0
    5.0506   -9.5007    0.0000 O   0  0  0  0  0  0  0  0  0  0  0  0
    6.2881  -10.2152    0.0000 O   0  0  0  0  0  0  0  0  0  0  0  0
    4.2256   -8.0718    0.0000 O   0  0  0  0  0  0  0  0  0  0  0  0
    3.8131   -8.7862    0.0000 C   0  0  0  0  0  0  0  0  0  0  0  0
    4.2256   -9.5007    0.0000 C   0  0  0  0  0  0  0  0  0  0  0  0
    2.9881   -8.7862    0.0000 C   0  0  0  0  0  0  0  0  0  0  0  0
    2.5756   -9.5007    0.0000 C   0  0  0  0  0  0  0  0  0  0  0  0
    2.9881  -10.2152    0.0000 C   0  0  0  0  0  0  0  0  0  0  0  0
    3.8131  -10.2152    0.0000 C   0  0  0  0  0  0  0  0  0  0  0  0
    8.7631   -4.4994    0.0000 O   0  0  0  0  0  0  0  0  0  0  0  0
   10.4131   -4.4994    0.0000 O   0  0  0  0  0  0  0  0  0  0  0  0
   11.2381   -5.9284    0.0000 O   0  0  0  0  0  0  0  0  0  0  0  0
    2.5756   -8.0718    0.0000 O   0  0  0  0  0  0  0  0  0  0  0  0
    2.5756  -10.9297    0.0000 C   0  0  0  0  0  0  0  0  0  0  0  0
    1.7506  -10.9297    0.0000 O   0  0  0  0  0  0  0  0  0  0  0  0
    2.9881  -11.6441    0.0000 O   0  0  0  0  0  0  0  0  0  0  0  0
    7.9381  -10.2152    0.0000 O   0  0  0  0  0  0  0  0  0  0  0  0
    8.7674  -10.2264    0.0000 O   0  0  0  0  0  0  0  0  0  0  0  0
    9.1774   -9.5105    0.0000 C   0  0  0  0  0  0  0  0  0  0  0  0
   10.0024   -9.5076    0.0000 C   0  0  0  0  0  0  0  0  0  0  0  0
   10.4125   -8.7918    0.0000 C   0  0  0  0  0  0  0  0  0  0  0  0
   10.4174  -10.2207    0.0000 C   0  0  0  0  0  0  0  0  0  0  0  0
   11.2424  -10.2179    0.0000 C   0  0  0  0  0  0  0  0  0  0  0  0
   11.6524   -9.5020    0.0000 C   0  0  0  0  0  0  0  0  0  0  0  0
   11.2375   -8.7889    0.0000 C   0  0  0  0  0  0  0  0  0  0  0  0
   11.6475   -8.0731    0.0000 O   0  0  0  0  0  0  0  0  0  0  0  0
   12.4774   -9.4992    0.0000 O   0  0  0  0  0  0  0  0  0  0  0  0
   11.6573  -10.9309    0.0000 O   0  0  0  0  0  0  0  0  0  0  0  0
  1  2  1  0  0  0  0
  2  3  1  0  0  0  0
  3  4  1  0  0  0  0
  4  5  1  0  0  0  0
  5  6  1  0  0  0  0
  6  1  1  0  0  0  0
  5  7  1  6  0  0  0
  8  9  2  0  0  0  0
  9 10  1  0  0  0  0
  6 10  1  1  0  0  0
  9 11  1  0  0  0  0
 11 12  1  0  0  0  0
 11 13  2  0  0  0  0
 13 14  1  0  0  0  0
 14 15  2  0  0  0  0
 15 16  1  0  0  0  0
 16 12  2  0  0  0  0
  2 17  1  1  0  0  0
 17 18  1  0  0  0  0
  3 19  1  6  0  0  0
 20 21  1  0  0  0  0
 21 22  2  0  0  0  0
 22 18  1  0  0  0  0
 21 23  1  0  0  0  0
 23 24  2  0  0  0  0
 24 25  1  0  0  0  0
 25 26  2  0  0  0  0
 26 22  1  0  0  0  0
 16 27  1  0  0  0  0
 15 28  1  0  0  0  0
 14 29  1  0  0  0  0
 23 30  1  0  0  0  0
 25 31  1  0  0  0  0
 31 32  1  0  0  0  0
 31 33  2  0  0  0  0
  4 34  1  1  0  0  0
 35 36  2  0  0  0  0
 36 37  1  0  0  0  0
 37 38  1  0  0  0  0
 37 39  2  0  0  0  0
 39 40  1  0  0  0  0
 40 41  2  0  0  0  0
 41 42  1  0  0  0  0
 42 38  2  0  0  0  0
 42 43  1  0  0  0  0
 41 44  1  0  0  0  0
 40 45  1  0  0  0  0
 36  7  1  0  0  0  0
M  END
>  <cdx:fragmentId>
5

$$$$
