98009.cdx
  Mrv1902 05222410222D          

  8  7  0  0  0  0            999 V2000
    4.7750   -2.8746    0.0000 C   0  0  0  0  0  0  0  0  0  0  0  0
    4.0605   -3.2871    0.0000 C   0  0  0  0  0  0  0  0  0  0  0  0
    3.3460   -2.8746    0.0000 C   0  0  0  0  0  0  0  0  0  0  0  0
    2.6316   -3.2871    0.0000 C   0  0  0  0  0  0  0  0  0  0  0  0
    1.9171   -2.8746    0.0000 C   0  0  0  0  0  0  0  0  0  0  0  0
    4.7750   -2.0496    0.0000 O   0  0  0  0  0  0  0  0  0  0  0  0
    5.4894   -3.2871    0.0000 O   0  0  0  0  0  0  0  0  0  0  0  0
    4.0605   -4.1121    0.0000 O   0  0  0  0  0  0  0  0  0  0  0  0
  1  2  1  0  0  0  0
  2  3  1  0  0  0  0
  3  4  1  0  0  0  0
  4  5  1  0  0  0  0
  1  6  2  0  0  0  0
  1  7  1  0  0  0  0
  2  8  1  0  0  0  0
M  END
>  <cdx:groupId>
25

>  <cdx:fragmentId>
5

$$$$
