9800.cdx
  Mrv1902 05222410202D          

 37 41  0  0  0  0            999 V2000
    9.0903  -10.0134    0.0000 C   0  0  0  0  0  0  0  0  0  0  0  0
    9.0903   -9.1884    0.0000 C   0  0  0  0  0  0  0  0  0  0  0  0
    8.3758   -8.7759    0.0000 C   0  0  0  0  0  0  0  0  0  0  0  0
    7.6614   -9.1884    0.0000 C   0  0  0  0  0  0  0  0  0  0  0  0
    7.6614  -10.0134    0.0000 C   0  0  0  0  0  0  0  0  0  0  0  0
    8.3758  -10.4259    0.0000 C   0  0  0  0  0  0  0  0  0  0  0  0
    6.9469   -8.7759    0.0000 C   0  0  0  0  0  0  0  0  0  0  0  0
    6.9469   -7.9509    0.0000 C   0  0  0  0  0  0  0  0  0  0  0  0
    6.2324   -7.5384    0.0000 O   0  0  0  0  0  0  0  0  0  0  0  0
    5.5179   -7.9509    0.0000 C   0  0  0  0  0  0  0  0  0  0  0  0
    5.5179   -8.7759    0.0000 C   0  0  0  0  0  0  0  0  0  0  0  0
    6.2324   -9.1884    0.0000 C   0  0  0  0  0  0  0  0  0  0  0  0
    4.8035   -7.5384    0.0000 C   0  0  0  0  0  0  0  0  0  0  0  0
    4.0890   -7.9509    0.0000 C   0  0  0  0  0  0  0  0  0  0  0  0
    4.0890   -8.7759    0.0000 C   0  0  0  0  0  0  0  0  0  0  0  0
    4.8035   -9.1884    0.0000 C   0  0  0  0  0  0  0  0  0  0  0  0
    3.3044   -7.6960    0.0000 O   0  0  0  0  0  0  0  0  0  0  0  0
    2.8195   -8.3634    0.0000 C   0  0  0  0  0  0  0  0  0  0  0  0
    3.3044   -9.0309    0.0000 O   0  0  0  0  0  0  0  0  0  0  0  0
    9.8048   -8.7759    0.0000 O   0  0  0  0  0  0  0  0  0  0  0  0
    9.8048  -10.4259    0.0000 O   0  0  0  0  0  0  0  0  0  0  0  0
   10.5192  -10.0134    0.0000 C   0  0  0  0  0  0  0  0  0  0  0  0
    8.3758  -11.2509    0.0000 O   0  0  0  0  0  0  0  0  0  0  0  0
    9.0903  -11.6634    0.0000 C   0  0  0  0  0  0  0  0  0  0  0  0
    6.2324  -10.0134    0.0000 O   0  0  0  0  0  0  0  0  0  0  0  0
    4.8035  -10.0134    0.0000 O   0  0  0  0  0  0  0  0  0  0  0  0
   10.5135   -6.7064    0.0000 C   0  0  2  0  0  0  0  0  0  0  0  0
    9.8001   -6.2921    0.0000 C   0  0  2  0  0  0  0  0  0  0  0  0
    9.0846   -6.7028    0.0000 C   0  0  1  0  0  0  0  0  0  0  0  0
    9.0825   -7.5278    0.0000 C   0  0  2  0  0  0  0  0  0  0  0  0
    9.7959   -7.9421    0.0000 C   0  0  1  0  0  0  0  0  0  0  0  0
   10.5114   -7.5314    0.0000 O   0  0  0  0  0  0  0  0  0  0  0  0
   11.2290   -6.2957    0.0000 C   0  0  0  0  0  0  0  0  0  0  0  0
    8.3711   -6.2885    0.0000 O   0  0  0  0  0  0  0  0  0  0  0  0
    9.8022   -5.4671    0.0000 O   0  0  0  0  0  0  0  0  0  0  0  0
    8.3670   -7.9385    0.0000 O   0  0  0  0  0  0  0  0  0  0  0  0
   11.2311   -5.4707    0.0000 O   0  0  0  0  0  0  0  0  0  0  0  0
  1  2  2  0  0  0  0
  2  3  1  0  0  0  0
  3  4  2  0  0  0  0
  4  5  1  0  0  0  0
  5  6  2  0  0  0  0
  6  1  1  0  0  0  0
  4  7  1  0  0  0  0
  7  8  2  0  0  0  0
  8  9  1  0  0  0  0
  9 10  1  0  0  0  0
 10 11  2  0  0  0  0
 11 12  1  0  0  0  0
 12  7  1  0  0  0  0
 10 13  1  0  0  0  0
 13 14  2  0  0  0  0
 14 15  1  0  0  0  0
 15 16  2  0  0  0  0
 16 11  1  0  0  0  0
 14 17  1  0  0  0  0
 17 18  1  0  0  0  0
 18 19  1  0  0  0  0
 19 15  1  0  0  0  0
  2 20  1  0  0  0  0
  1 21  1  0  0  0  0
 21 22  1  0  0  0  0
  6 23  1  0  0  0  0
 23 24  1  0  0  0  0
 12 25  2  0  0  0  0
 16 26  1  0  0  0  0
 27 28  1  0  0  0  0
 28 29  1  0  0  0  0
 29 30  1  0  0  0  0
 30 31  1  0  0  0  0
 31 32  1  0  0  0  0
 32 27  1  0  0  0  0
 27 33  1  1  0  0  0
 29 34  1  1  0  0  0
 28 35  1  6  0  0  0
 30 36  1  6  0  0  0
 33 37  1  0  0  0  0
 31 20  1  1  0  0  0
M  END
>  <cdx:fragmentId>
5

$$$$
