98012.cdx
  Mrv1902 05222410232D          

 24 25  0  0  0  0            999 V2000
    4.8587   -7.0950    0.0000 C   0  0  0  0  0  0  0  0  0  0  0  0
    4.8587   -7.9200    0.0000 C   0  0  0  0  0  0  0  0  0  0  0  0
    5.5731   -8.3325    0.0000 C   0  0  0  0  0  0  0  0  0  0  0  0
    6.2876   -7.9200    0.0000 C   0  0  0  0  0  0  0  0  0  0  0  0
    6.2876   -7.0950    0.0000 C   0  0  0  0  0  0  0  0  0  0  0  0
    5.5731   -6.6825    0.0000 C   0  0  0  0  0  0  0  0  0  0  0  0
    4.1442   -8.3325    0.0000 O   0  0  0  0  0  0  0  0  0  0  0  0
    4.1442   -6.6825    0.0000 O   0  0  0  0  0  0  0  0  0  0  0  0
    5.5731   -5.8575    0.0000 O   0  0  0  0  0  0  0  0  0  0  0  0
    7.0021   -8.3325    0.0000 C   0  0  0  0  0  0  0  0  0  0  0  0
    7.7166   -7.9200    0.0000 O   0  0  0  0  0  0  0  0  0  0  0  0
    7.0021   -9.1575    0.0000 O   0  0  0  0  0  0  0  0  0  0  0  0
    4.8587   -5.4450    0.0000 C   0  0  0  0  0  0  0  0  0  0  0  0
    9.1563   -9.5643    0.0000 C   0  0  2  0  0  0  0  0  0  0  0  0
    9.8707   -9.1516    0.0000 C   0  0  2  0  0  0  0  0  0  0  0  0
    9.8705   -8.3266    0.0000 C   0  0  1  0  0  0  0  0  0  0  0  0
    9.1560   -7.9143    0.0000 C   0  0  2  0  0  0  0  0  0  0  0  0
    8.4416   -8.3269    0.0000 C   0  0  1  0  0  0  0  0  0  0  0  0
    8.4417   -9.1519    0.0000 O   0  0  0  0  0  0  0  0  0  0  0  0
    9.1565  -10.3893    0.0000 C   0  0  0  0  0  0  0  0  0  0  0  0
   10.5849   -7.9140    0.0000 O   0  0  0  0  0  0  0  0  0  0  0  0
   10.5852   -9.5640    0.0000 O   0  0  0  0  0  0  0  0  0  0  0  0
    9.1558   -7.0893    0.0000 O   0  0  0  0  0  0  0  0  0  0  0  0
    9.8710  -10.8016    0.0000 O   0  0  0  0  0  0  0  0  0  0  0  0
  1  2  2  0  0  0  0
  2  3  1  0  0  0  0
  3  4  2  0  0  0  0
  4  5  1  0  0  0  0
  5  6  2  0  0  0  0
  6  1  1  0  0  0  0
  2  7  1  0  0  0  0
  1  8  1  0  0  0  0
  6  9  1  0  0  0  0
  4 10  1  0  0  0  0
 10 11  1  0  0  0  0
 10 12  2  0  0  0  0
  9 13  1  0  0  0  0
 14 15  1  0  0  0  0
 15 16  1  0  0  0  0
 16 17  1  0  0  0  0
 17 18  1  0  0  0  0
 18 19  1  0  0  0  0
 19 14  1  0  0  0  0
 14 20  1  1  0  0  0
 16 21  1  1  0  0  0
 15 22  1  6  0  0  0
 17 23  1  6  0  0  0
 20 24  1  0  0  0  0
 18 11  1  1  0  0  0
M  END
>  <cdx:fragmentId>
5

$$$$
