98013.cdx
  Mrv1902 05222410232D          

 41 45  0  0  0  0            999 V2000
   10.7969   -7.6122    0.0000 C   0  0  0  0  0  0  0  0  0  0  0  0
   10.7969   -8.4372    0.0000 C   0  0  0  0  0  0  0  0  0  0  0  0
   11.5114   -8.8497    0.0000 O   0  0  0  0  0  0  0  0  0  0  0  0
   10.0825   -8.8497    0.0000 C   0  0  0  0  0  0  0  0  0  0  0  0
   10.0825   -9.6747    0.0000 O   0  0  0  0  0  0  0  0  0  0  0  0
    9.3680   -8.4372    0.0000 C   0  0  0  0  0  0  0  0  0  0  0  0
    8.6535   -8.8497    0.0000 C   0  0  0  0  0  0  0  0  0  0  0  0
    8.6535   -9.6747    0.0000 O   0  0  0  0  0  0  0  0  0  0  0  0
    7.9390   -8.4372    0.0000 C   0  0  0  0  0  0  0  0  0  0  0  0
    7.9390   -7.6122    0.0000 C   0  0  0  0  0  0  0  0  0  0  0  0
    8.6535   -7.1997    0.0000 C   0  0  0  0  0  0  0  0  0  0  0  0
    9.3680   -7.6122    0.0000 C   0  0  0  0  0  0  0  0  0  0  0  0
   10.0825   -7.1997    0.0000 O   0  0  0  0  0  0  0  0  0  0  0  0
   11.5114   -7.1997    0.0000 C   0  0  0  0  0  0  0  0  0  0  0  0
   11.5114   -6.3747    0.0000 C   0  0  0  0  0  0  0  0  0  0  0  0
   12.2259   -5.9622    0.0000 C   0  0  0  0  0  0  0  0  0  0  0  0
   12.9403   -6.3747    0.0000 C   0  0  0  0  0  0  0  0  0  0  0  0
   13.6548   -5.9622    0.0000 O   0  0  0  0  0  0  0  0  0  0  0  0
   12.9403   -7.1997    0.0000 C   0  0  0  0  0  0  0  0  0  0  0  0
   12.2259   -7.6122    0.0000 C   0  0  0  0  0  0  0  0  0  0  0  0
    7.2246   -7.1997    0.0000 O   0  0  0  0  0  0  0  0  0  0  0  0
    6.5101   -7.6122    0.0000 C   0  0  0  0  0  0  0  0  0  0  0  0
    6.4239   -8.4327    0.0000 C   0  0  1  0  0  0  0  0  0  0  0  0
    7.0370   -8.9847    0.0000 O   0  0  0  0  0  0  0  0  0  0  0  0
    5.6169   -8.6042    0.0000 C   0  0  2  0  0  0  0  0  0  0  0  0
    5.2813   -9.3579    0.0000 O   0  0  0  0  0  0  0  0  0  0  0  0
    5.2044   -7.8898    0.0000 C   0  0  2  0  0  0  0  0  0  0  0  0
    5.7564   -7.2767    0.0000 O   0  0  0  0  0  0  0  0  0  0  0  0
    4.3839   -7.8035    0.0000 C   0  0  0  0  0  0  0  0  0  0  0  0
    3.8990   -8.4710    0.0000 O   0  0  0  0  0  0  0  0  0  0  0  0
    3.0740   -8.4710    0.0000 C   0  0  0  0  0  0  0  0  0  0  0  0
    2.6615   -9.1854    0.0000 C   0  0  0  0  0  0  0  0  0  0  0  0
    2.6615   -7.7565    0.0000 O   0  0  0  0  0  0  0  0  0  0  0  0
    1.8365   -9.1854    0.0000 C   0  0  0  0  0  0  0  0  0  0  0  0
    1.4240   -9.8999    0.0000 C   0  0  0  0  0  0  0  0  0  0  0  0
    1.8365  -10.6144    0.0000 C   0  0  0  0  0  0  0  0  0  0  0  0
    2.6615  -10.6144    0.0000 C   0  0  0  0  0  0  0  0  0  0  0  0
    3.0740   -9.8999    0.0000 C   0  0  0  0  0  0  0  0  0  0  0  0
    0.5990   -9.8999    0.0000 O   0  0  0  0  0  0  0  0  0  0  0  0
    1.4240  -11.3289    0.0000 O   0  0  0  0  0  0  0  0  0  0  0  0
    3.0740  -11.3289    0.0000 O   0  0  0  0  0  0  0  0  0  0  0  0
  1  2  2  0  0  0  0
  2  3  1  0  0  0  0
  2  4  1  0  0  0  0
  4  5  2  0  0  0  0
  4  6  1  0  0  0  0
  6  7  1  0  0  0  0
  7  8  1  0  0  0  0
  7  9  2  0  0  0  0
  9 10  1  0  0  0  0
 10 11  2  0  0  0  0
 11 12  1  0  0  0  0
  6 12  2  0  0  0  0
 12 13  1  0  0  0  0
  1 13  1  0  0  0  0
  1 14  1  0  0  0  0
 14 15  1  0  0  0  0
 15 16  2  0  0  0  0
 16 17  1  0  0  0  0
 17 18  1  0  0  0  0
 17 19  2  0  0  0  0
 19 20  1  0  0  0  0
 14 20  2  0  0  0  0
 21 22  1  0  0  0  0
 22 23  1  0  0  0  0
 23 24  1  1  0  0  0
 23 25  1  0  0  0  0
 25 26  1  6  0  0  0
 25 27  1  0  0  0  0
 27 28  1  0  0  0  0
 27 29  1  1  0  0  0
 29 30  1  0  0  0  0
 22 28  1  0  0  0  0
 10 21  1  0  0  0  0
 30 31  1  0  0  0  0
 31 32  1  0  0  0  0
 31 33  2  0  0  0  0
 32 34  2  0  0  0  0
 34 35  1  0  0  0  0
 35 36  2  0  0  0  0
 36 37  1  0  0  0  0
 37 38  2  0  0  0  0
 38 32  1  0  0  0  0
 35 39  1  0  0  0  0
 36 40  1  0  0  0  0
 37 41  1  0  0  0  0
M  END
>  <cdx:fragmentId>
5

$$$$
