98016.cdx
  Mrv1902 05222410252D          

 28 30  0  0  0  0            999 V2000
    7.6637   -7.8788    0.0000 C   0  0  0  0  0  0  0  0  0  0  0  0
    7.6637   -8.7037    0.0000 C   0  0  0  0  0  0  0  0  0  0  0  0
    8.3781   -9.1162    0.0000 C   0  0  0  0  0  0  0  0  0  0  0  0
    9.0926   -8.7037    0.0000 C   0  0  0  0  0  0  0  0  0  0  0  0
    9.0926   -7.8788    0.0000 C   0  0  0  0  0  0  0  0  0  0  0  0
    8.3781   -7.4663    0.0000 C   0  0  0  0  0  0  0  0  0  0  0  0
    9.8071   -9.1162    0.0000 S   0  0  0  0  0  0  0  0  0  0  0  0
   10.5216   -8.7037    0.0000 C   0  0  0  0  0  0  0  0  0  0  0  0
   10.5216   -7.8788    0.0000 C   0  0  0  0  0  0  0  0  0  0  0  0
    9.8071   -7.4663    0.0000 N   0  0  0  0  0  0  0  0  0  0  0  0
    6.2347   -8.7037    0.0000 O   0  0  0  0  0  0  0  0  0  0  0  0
    6.9492   -9.1162    0.0000 C   0  0  0  0  0  0  0  0  0  0  0  0
    4.8058   -7.8788    0.0000 O   0  0  0  0  0  0  0  0  0  0  0  0
    4.8058   -8.7037    0.0000 C   0  0  2  0  0  0  0  0  0  0  0  0
    5.5203   -9.1162    0.0000 C   0  0  0  0  0  0  0  0  0  0  0  0
    4.0913   -9.1162    0.0000 C   0  0  1  0  0  0  0  0  0  0  0  0
    4.0913   -9.9412    0.0000 C   0  0  2  0  0  0  0  0  0  0  0  0
    4.8058  -10.3537    0.0000 C   0  0  1  0  0  0  0  0  0  0  0  0
    5.5203   -9.9412    0.0000 O   0  0  0  0  0  0  0  0  0  0  0  0
    3.3769  -10.3537    0.0000 O   0  0  0  0  0  0  0  0  0  0  0  0
    4.0913  -11.5912    0.0000 O   0  0  0  0  0  0  0  0  0  0  0  0
    4.8058  -11.1787    0.0000 C   0  0  0  0  0  0  0  0  0  0  0  0
    8.3781   -6.6413    0.0000 O   0  0  0  0  0  0  0  0  0  0  0  0
    7.9656   -9.8307    0.0000 C   0  0  0  0  0  0  0  0  0  0  0  0
    8.7906   -9.8307    0.0000 C   0  0  0  0  0  0  0  0  0  0  0  0
   11.2360   -7.4663    0.0000 O   0  0  0  0  0  0  0  0  0  0  0  0
   11.2360   -9.1162    0.0000 O   0  0  0  0  0  0  0  0  0  0  0  0
    3.3769   -8.7037    0.0000 O   0  0  0  0  0  0  0  0  0  0  0  0
  1  2  2  0  0  0  0
  2  3  1  0  0  0  0
  3  4  1  0  0  0  0
  4  5  2  0  0  0  0
  5  6  1  0  0  0  0
  6  1  1  0  0  0  0
  4  7  1  0  0  0  0
  7  8  1  0  0  0  0
  8  9  1  0  0  0  0
  9 10  1  0  0  0  0
 10  5  1  0  0  0  0
 11 12  1  0  0  0  0
 12  2  1  0  0  0  0
 14 13  1  6  0  0  0
 14 15  1  0  0  0  0
 15 11  1  0  0  0  0
 14 16  1  0  0  0  0
 16 17  1  0  0  0  0
 17 18  1  0  0  0  0
 18 19  1  0  0  0  0
 19 15  1  0  0  0  0
 17 20  1  6  0  0  0
 21 22  1  0  0  0  0
 18 22  1  1  0  0  0
  6 23  2  0  0  0  0
  3 24  1  0  0  0  0
  3 25  1  0  0  0  0
  9 26  2  0  0  0  0
  8 27  1  0  0  0  0
 16 28  1  1  0  0  0
M  END
>  <cdx:fragmentId>
5

$$$$
