98015.cdx
  Mrv1902 05222410252D          

 22 21  0  0  0  0            999 V2000
    5.5345   -9.6278    0.0000 C   0  0  0  0  0  0  0  0  0  0  0  0
    6.2490   -9.2153    0.0000 C   0  0  0  0  0  0  0  0  0  0  0  0
    6.9634   -9.6278    0.0000 C   0  0  0  0  0  0  0  0  0  0  0  0
    7.6779   -9.2153    0.0000 C   0  0  0  0  0  0  0  0  0  0  0  0
    8.3924   -9.6278    0.0000 C   0  0  0  0  0  0  0  0  0  0  0  0
    5.5345  -10.4528    0.0000 O   0  0  0  0  0  0  0  0  0  0  0  0
    4.8200   -9.2153    0.0000 O   0  0  0  0  0  0  0  0  0  0  0  0
    9.1068   -9.2153    0.0000 C   0  0  0  0  0  0  0  0  0  0  0  0
    9.1068   -8.3903    0.0000 C   0  0  0  0  0  0  0  0  0  0  0  0
    9.8213   -7.9778    0.0000 C   0  0  0  0  0  0  0  0  0  0  0  0
    9.8213   -7.1528    0.0000 C   0  0  0  0  0  0  0  0  0  0  0  0
    9.1068   -6.7403    0.0000 C   0  0  0  0  0  0  0  0  0  0  0  0
    9.1068   -5.9153    0.0000 C   0  0  0  0  0  0  0  0  0  0  0  0
    8.3924   -5.5028    0.0000 C   0  0  0  0  0  0  0  0  0  0  0  0
    7.6779   -5.9153    0.0000 C   0  0  0  0  0  0  0  0  0  0  0  0
    6.9634   -5.5028    0.0000 C   0  0  0  0  0  0  0  0  0  0  0  0
    6.2490   -5.9153    0.0000 C   0  0  0  0  0  0  0  0  0  0  0  0
    6.2490   -6.7403    0.0000 C   0  0  0  0  0  0  0  0  0  0  0  0
    5.5345   -7.1528    0.0000 C   0  0  0  0  0  0  0  0  0  0  0  0
    4.8200   -6.7403    0.0000 C   0  0  0  0  0  0  0  0  0  0  0  0
    4.8200   -5.9153    0.0000 C   0  0  0  0  0  0  0  0  0  0  0  0
    4.1055   -5.5028    0.0000 C   0  0  0  0  0  0  0  0  0  0  0  0
  1  2  1  0  0  0  0
  2  3  1  0  0  0  0
  3  4  1  0  0  0  0
  4  5  1  0  0  0  0
  1  6  2  0  0  0  0
  1  7  1  0  0  0  0
  5  8  2  0  0  0  0
  8  9  1  0  0  0  0
  9 10  1  0  0  0  0
 10 11  2  0  0  0  0
 11 12  1  0  0  0  0
 12 13  1  0  0  0  0
 13 14  2  0  0  0  0
 14 15  1  0  0  0  0
 15 16  1  0  0  0  0
 16 17  2  0  0  0  0
 17 18  1  0  0  0  0
 18 19  1  0  0  0  0
 19 20  2  0  0  0  0
 20 21  1  0  0  0  0
 21 22  1  0  0  0  0
M  END
>  <cdx:fragmentId>
15936

$$$$
