98010.cdx
  Mrv1902 05222410242D          

 76 82  0  0  0  0            999 V2000
    8.3718   -6.2425    0.0000 C   0  0  0  0  0  0  0  0  0  0  0  0
    8.3718   -7.0675    0.0000 C   0  0  0  0  0  0  0  0  0  0  0  0
    9.0863   -7.4800    0.0000 C   0  0  0  0  0  0  0  0  0  0  0  0
    9.8007   -7.0675    0.0000 C   0  0  0  0  0  0  0  0  0  0  0  0
    9.8007   -6.2425    0.0000 C   0  0  0  0  0  0  0  0  0  0  0  0
    9.0863   -5.8300    0.0000 C   0  0  0  0  0  0  0  0  0  0  0  0
    9.0863   -8.3050    0.0000 C   0  0  0  0  0  0  0  0  0  0  0  0
    9.8007   -8.7175    0.0000 C   0  0  0  0  0  0  0  0  0  0  0  0
    8.3718   -8.7175    0.0000 C   0  0  0  0  0  0  0  0  0  0  0  0
    8.3718   -9.5425    0.0000 C   0  0  0  0  0  0  0  0  0  0  0  0
    9.0863   -9.9550    0.0000 C   0  0  0  0  0  0  0  0  0  0  0  0
    9.8007   -9.5425    0.0000 C   0  0  0  0  0  0  0  0  0  0  0  0
    9.0863   -5.0050    0.0000 O   0  0  0  0  0  0  0  0  0  0  0  0
   10.5152   -5.8300    0.0000 O   0  0  0  0  0  0  0  0  0  0  0  0
   10.5152   -7.4800    0.0000 O   0  0  0  0  0  0  0  0  0  0  0  0
    7.4786   -6.8062    0.0000 C   0  0  0  0  0  0  0  0  0  0  0  0
   10.5152   -8.3050    0.0000 O   0  0  0  0  0  0  0  0  0  0  0  0
   10.5152   -9.9550    0.0000 O   0  0  0  0  0  0  0  0  0  0  0  0
    8.5230  -11.3992    0.0000 C   0  0  0  0  0  0  0  0  0  0  0  0
    7.7195  -11.2120    0.0000 C   0  0  0  0  0  0  0  0  0  0  0  0
    7.1557  -11.8143    0.0000 C   0  0  0  0  0  0  0  0  0  0  0  0
    7.3954  -12.6037    0.0000 C   0  0  0  0  0  0  0  0  0  0  0  0
    8.1989  -12.7909    0.0000 C   0  0  0  0  0  0  0  0  0  0  0  0
    8.7627  -12.1886    0.0000 C   0  0  0  0  0  0  0  0  0  0  0  0
    7.4798  -10.4226    0.0000 O   0  0  0  0  0  0  0  0  0  0  0  0
    6.3522  -11.6272    0.0000 O   0  0  0  0  0  0  0  0  0  0  0  0
    6.8316  -13.2060    0.0000 O   0  0  0  0  0  0  0  0  0  0  0  0
    7.6981   -8.8550    0.0000 C   0  0  0  0  0  0  0  0  0  0  0  0
    9.5662  -12.3757    0.0000 C   0  0  0  0  0  0  0  0  0  0  0  0
    6.0486   -8.4838    0.0000 C   0  0  1  0  0  0  0  0  0  0  0  0
    7.4845   -9.6519    0.0000 O   0  0  0  0  0  0  0  0  0  0  0  0
    5.3072   -8.8457    0.0000 O   0  0  0  0  0  0  0  0  0  0  0  0
    6.1058   -7.6607    0.0000 C   0  0  2  0  0  0  0  0  0  0  0  0
    5.4217   -7.1997    0.0000 C   0  0  1  0  0  0  0  0  0  0  0  0
    4.6803   -7.5616    0.0000 C   0  0  2  0  0  0  0  0  0  0  0  0
    4.6231   -8.3846    0.0000 C   0  0  2  0  0  0  0  0  0  0  0  0
    6.8952   -7.3896    0.0000 O   0  0  0  0  0  0  0  0  0  0  0  0
    7.2926   -6.0555    0.0000 O   0  0  0  0  0  0  0  0  0  0  0  0
    3.9962   -7.1005    0.0000 O   0  0  0  0  0  0  0  0  0  0  0  0
    3.8817   -8.7466    0.0000 O   0  0  0  0  0  0  0  0  0  0  0  0
    5.4789   -6.3767    0.0000 O   0  0  0  0  0  0  0  0  0  0  0  0
    6.7327   -8.9448    0.0000 C   0  0  0  0  0  0  0  0  0  0  0  0
    7.1284   -8.5329    0.0000 C   0  0  0  0  0  0  0  0  0  0  0  0
    9.0863  -10.7800    0.0000 O   0  0  0  0  0  0  0  0  0  0  0  0
    4.6955   -5.8669    0.0000 O   0  0  0  0  0  0  0  0  0  0  0  0
    3.9828   -6.2823    0.0000 C   0  0  0  0  0  0  0  0  0  0  0  0
    3.2666   -5.8728    0.0000 C   0  0  0  0  0  0  0  0  0  0  0  0
    2.5538   -6.2882    0.0000 C   0  0  0  0  0  0  0  0  0  0  0  0
    3.2632   -5.0478    0.0000 C   0  0  0  0  0  0  0  0  0  0  0  0
    2.5470   -4.6382    0.0000 C   0  0  0  0  0  0  0  0  0  0  0  0
    1.8343   -5.0537    0.0000 C   0  0  0  0  0  0  0  0  0  0  0  0
    1.8377   -5.8787    0.0000 C   0  0  0  0  0  0  0  0  0  0  0  0
    1.1249   -6.2941    0.0000 O   0  0  0  0  0  0  0  0  0  0  0  0
    1.1181   -4.6442    0.0000 O   0  0  0  0  0  0  0  0  0  0  0  0
    2.5436   -3.8133    0.0000 O   0  0  0  0  0  0  0  0  0  0  0  0
    6.7926   -5.9622    0.0000 O   0  0  0  0  0  0  0  0  0  0  0  0
    5.9937   -5.7564    0.0000 C   0  0  0  0  0  0  0  0  0  0  0  0
    5.7724   -4.9616    0.0000 C   0  0  0  0  0  0  0  0  0  0  0  0
    4.9734   -4.7559    0.0000 C   0  0  0  0  0  0  0  0  0  0  0  0
    6.3500   -4.3726    0.0000 C   0  0  0  0  0  0  0  0  0  0  0  0
    6.1287   -3.5779    0.0000 C   0  0  0  0  0  0  0  0  0  0  0  0
    5.3298   -3.3721    0.0000 C   0  0  0  0  0  0  0  0  0  0  0  0
    4.7522   -3.9611    0.0000 C   0  0  0  0  0  0  0  0  0  0  0  0
    3.9532   -3.7554    0.0000 O   0  0  0  0  0  0  0  0  0  0  0  0
    5.1085   -2.5773    0.0000 O   0  0  0  0  0  0  0  0  0  0  0  0
    6.7064   -2.9888    0.0000 O   0  0  0  0  0  0  0  0  0  0  0  0
   10.1300  -11.7734    0.0000 O   0  0  0  0  0  0  0  0  0  0  0  0
    9.8059  -13.1651    0.0000 N   0  0  0  0  0  0  0  0  0  0  0  0
   10.6091  -13.2604    0.0000 C   0  0  0  0  0  0  0  0  0  0  0  0
   10.9395  -14.0164    0.0000 C   0  0  0  0  0  0  0  0  0  0  0  0
   11.0986  -12.5963    0.0000 O   0  0  0  0  0  0  0  0  0  0  0  0
   11.7594  -14.1083    0.0000 C   0  0  1  0  0  0  0  0  0  0  0  0
   12.0897  -14.8642    0.0000 C   0  0  0  0  0  0  0  0  0  0  0  0
   12.9096  -14.9561    0.0000 O   0  0  0  0  0  0  0  0  0  0  0  0
   11.6002  -15.5283    0.0000 O   0  0  0  0  0  0  0  0  0  0  0  0
   12.2488  -13.4442    0.0000 N   0  0  0  0  0  0  0  0  0  0  0  0
  1  2  2  0  0  0  0
  2  3  1  0  0  0  0
  3  4  2  0  0  0  0
  4  5  1  0  0  0  0
  5  6  2  0  0  0  0
  6  1  1  0  0  0  0
  3  7  1  0  0  0  0
  7  8  2  0  0  0  0
  7  9  1  0  0  0  0
  9 10  2  0  0  0  0
 10 11  1  0  0  0  0
 11 12  2  0  0  0  0
 12  8  1  0  0  0  0
  6 13  1  0  0  0  0
  5 14  1  0  0  0  0
  4 15  1  0  0  0  0
  2 16  1  0  0  0  0
  8 17  1  0  0  0  0
 12 18  1  0  0  0  0
 19 20  2  0  0  0  0
 20 21  1  0  0  0  0
 21 22  2  0  0  0  0
 22 23  1  0  0  0  0
 23 24  2  0  0  0  0
 24 19  1  0  0  0  0
 20 25  1  0  0  0  0
 21 26  1  0  0  0  0
 22 27  1  0  0  0  0
  9 28  1  0  0  0  0
 24 29  1  0  0  0  0
 28 31  2  0  0  0  0
 30 32  1  0  0  0  0
 30 33  1  0  0  0  0
 33 34  1  0  0  0  0
 34 35  1  0  0  0  0
 35 36  1  0  0  0  0
 36 32  1  0  0  0  0
 16 37  1  0  0  0  0
 16 38  2  0  0  0  0
 33 37  1  6  0  0  0
 35 39  1  6  0  0  0
 36 40  1  1  0  0  0
 34 41  1  1  0  0  0
 30 42  1  1  0  0  0
 28 43  1  0  0  0  0
 42 43  1  0  0  0  0
 11 44  1  0  0  0  0
 19 44  1  0  0  0  0
 45 46  2  0  0  0  0
 46 47  1  0  0  0  0
 47 48  1  0  0  0  0
 47 49  2  0  0  0  0
 49 50  1  0  0  0  0
 50 51  2  0  0  0  0
 51 52  1  0  0  0  0
 52 48  2  0  0  0  0
 52 53  1  0  0  0  0
 51 54  1  0  0  0  0
 50 55  1  0  0  0  0
 56 57  2  0  0  0  0
 57 58  1  0  0  0  0
 58 59  1  0  0  0  0
 58 60  2  0  0  0  0
 60 61  1  0  0  0  0
 61 62  2  0  0  0  0
 62 63  1  0  0  0  0
 63 59  2  0  0  0  0
 63 64  1  0  0  0  0
 62 65  1  0  0  0  0
 61 66  1  0  0  0  0
 46 39  1  0  0  0  0
 57 41  1  0  0  0  0
 29 67  2  0  0  0  0
 29 68  1  0  0  0  0
 69 70  1  0  0  0  0
 69 71  2  0  0  0  0
 70 72  1  0  0  0  0
 72 73  1  0  0  0  0
 73 74  1  0  0  0  0
 73 75  2  0  0  0  0
 72 76  1  6  0  0  0
 69 68  1  0  0  0  0
M  END
>  <cdx:fragmentId>
5

$$$$
