98017.cdx
  Mrv1902 05222410252D          

 48 54  0  0  0  0            999 V2000
    7.7064   -9.8834    0.0000 H   0  0  0  0  0  0  0  0  0  0  0  0
    6.9937  -11.1215    0.0000 O   0  0  0  0  0  0  0  0  0  0  0  0
    9.1357   -9.8828    0.0000 H   0  0  0  0  0  0  0  0  0  0  0  0
    6.9922   -8.6465    0.0000 C   0  0  0  0  0  0  0  0  0  0  0  0
    4.8499  -10.7109    0.0000 O   0  0  0  0  0  0  0  0  0  0  0  0
    7.7085  -11.5334    0.0000 O   0  0  0  0  0  0  0  0  0  0  0  0
    9.4463   -9.6322    0.0000 H   0  0  0  0  0  0  0  0  0  0  0  0
    7.8772   -8.2513    0.0000 C   0  0  0  0  0  0  0  0  0  0  0  0
    7.7064   -9.0584    0.0000 C   0  0  2  0  0  0  0  0  0  0  0  0
    6.9922   -9.4715    0.0000 C   0  0  2  0  0  0  0  0  0  0  0  0
    6.2774   -9.0597    0.0000 C   0  0  0  0  0  0  0  0  0  0  0  0
    5.5633   -9.4728    0.0000 C   0  0  0  0  0  0  0  0  0  0  0  0
    5.5640  -10.2978    0.0000 C   0  0  1  0  0  0  0  0  0  0  0  0
    6.2789  -10.7097    0.0000 C   0  0  0  0  0  0  0  0  0  0  0  0
    6.9930  -10.2965    0.0000 C   0  0  1  0  0  0  0  0  0  0  0  0
    7.7078  -10.7084    0.0000 C   0  0  0  0  0  0  0  0  0  0  0  0
    8.4219  -10.2953    0.0000 C   0  0  0  0  0  0  0  0  0  0  0  0
    8.4212   -9.4703    0.0000 C   0  0  1  0  0  0  0  0  0  0  0  0
    9.0338   -8.9177    0.0000 C   0  0  2  0  0  0  0  0  0  0  0  0
    9.8544   -9.0033    0.0000 C   0  0  0  0  0  0  0  0  0  0  0  0
   10.3387   -8.3354    0.0000 C   0  0  0  0  0  0  0  0  0  0  0  0
   10.0025   -7.5820    0.0000 C   0  0  2  0  0  0  0  0  0  0  0  0
    9.1819   -7.4965    0.0000 C   0  0  2  0  0  0  0  0  0  0  0  0
    8.6976   -8.1644    0.0000 C   0  0  2  0  0  0  0  0  0  0  0  0
   10.3374   -6.8280    0.0000 C   0  0  2  0  0  0  0  0  0  0  0  0
    9.7238   -6.2765    0.0000 C   0  0  1  0  0  0  0  0  0  0  0  0
    9.0097   -6.6897    0.0000 N   0  0  0  0  0  0  0  0  0  0  0  0
    9.7238   -5.4515    0.0000 C   0  0  0  0  0  0  0  0  0  0  0  0
    9.0097   -5.0397    0.0000 C   0  0  0  0  0  0  0  0  0  0  0  0
    8.2956   -5.4515    0.0000 C   0  0  1  0  0  0  0  0  0  0  0  0
    8.2956   -6.2765    0.0000 C   0  0  0  0  0  0  0  0  0  0  0  0
    7.5812   -5.0389    0.0000 C   0  0  0  0  0  0  0  0  0  0  0  0
    8.2851   -7.4499    0.0000 O   0  0  0  0  0  0  0  0  0  0  0  0
   11.1442   -6.6558    0.0000 C   0  0  0  0  0  0  0  0  0  0  0  0
    4.1351  -10.2990    0.0000 C   0  0  2  0  0  0  0  0  0  0  0  0
    4.1340   -9.4740    0.0000 O   0  0  0  0  0  0  0  0  0  0  0  0
    3.4190   -9.0625    0.0000 C   0  0  1  0  0  0  0  0  0  0  0  0
    2.7051   -9.4740    0.0000 C   0  0  2  0  0  0  0  0  0  0  0  0
    2.7051  -10.2990    0.0000 C   0  0  1  0  0  0  0  0  0  0  0  0
    3.4190  -10.7106    0.0000 C   0  0  1  0  0  0  0  0  0  0  0  0
    3.4187   -8.2375    0.0000 C   0  0  0  0  0  0  0  0  0  0  0  0
    1.9907  -10.7118    0.0000 O   0  0  0  0  0  0  0  0  0  0  0  0
    1.9907   -9.0613    0.0000 O   0  0  0  0  0  0  0  0  0  0  0  0
    3.4184  -11.5356    0.0000 O   0  0  0  0  0  0  0  0  0  0  0  0
    2.7041   -7.8252    0.0000 O   0  0  0  0  0  0  0  0  0  0  0  0
    9.0093   -5.8640    0.0000 H   0  0  0  0  0  0  0  0  0  0  0  0
   10.8230   -7.6675    0.0000 H   0  0  0  0  0  0  0  0  0  0  0  0
    9.5944   -8.2110    0.0000 H   0  0  0  0  0  0  0  0  0  0  0  0
  9  1  1  6  0  0  0
 15  2  1  6  0  0  0
 18  3  1  1  0  0  0
 10  4  1  1  0  0  0
 13  5  1  1  0  0  0
 16  6  2  0  0  0  0
 19  7  1  6  0  0  0
 23 22  1  0  0  0  0
 15 10  1  0  0  0  0
 18  9  1  0  0  0  0
 24 19  1  0  0  0  0
 24  8  1  0  0  0  0
  9  8  1  0  0  0  0
 10  9  1  0  0  0  0
 11 10  1  0  0  0  0
 12 11  1  0  0  0  0
 13 12  1  0  0  0  0
 14 13  1  0  0  0  0
 15 14  1  0  0  0  0
 16 15  1  0  0  0  0
 17 16  1  0  0  0  0
 18 17  1  0  0  0  0
 19 18  1  0  0  0  0
 20 19  1  0  0  0  0
 21 20  1  0  0  0  0
 22 21  1  0  0  0  0
 24 23  1  0  0  0  0
 22 25  1  0  0  0  0
 25 26  1  0  0  0  0
 26 27  1  0  0  0  0
 27 23  1  0  0  0  0
 26 28  1  0  0  0  0
 28 29  1  0  0  0  0
 29 30  1  0  0  0  0
 30 31  1  0  0  0  0
 31 27  1  0  0  0  0
 30 32  1  1  0  0  0
 24 33  1  6  0  0  0
 25 34  1  6  0  0  0
 35  5  1  1  0  0  0
 35 36  1  0  0  0  0
 36 37  1  0  0  0  0
 37 38  1  0  0  0  0
 38 39  1  0  0  0  0
 39 40  1  0  0  0  0
 40 35  1  0  0  0  0
 37 41  1  1  0  0  0
 39 42  1  1  0  0  0
 38 43  1  6  0  0  0
 40 44  1  6  0  0  0
 41 45  1  0  0  0  0
 26 46  1  6  0  0  0
 22 47  1  1  0  0  0
 23 48  1  1  0  0  0
M  END
>  <cdx:fragmentId>
5

$$$$
