98011.cdx
  Mrv1902 05222410242D          

 28 30  0  0  0  0            999 V2000
    5.6562   -8.5250    0.0000 C   0  0  2  0  0  0  0  0  0  0  0  0
    5.6562   -9.3500    0.0000 C   0  0  2  0  0  0  0  0  0  0  0  0
    6.3706   -9.7625    0.0000 C   0  0  1  0  0  0  0  0  0  0  0  0
    7.0851   -9.3500    0.0000 C   0  0  2  0  0  0  0  0  0  0  0  0
    7.0851   -8.5250    0.0000 C   0  0  1  0  0  0  0  0  0  0  0  0
    6.3706   -8.1125    0.0000 O   0  0  0  0  0  0  0  0  0  0  0  0
    7.7996   -8.1125    0.0000 O   0  0  0  0  0  0  0  0  0  0  0  0
    8.5141   -8.5250    0.0000 C   0  0  0  0  0  0  0  0  0  0  0  0
    9.2285   -8.1125    0.0000 C   0  0  0  0  0  0  0  0  0  0  0  0
    9.9430   -8.5250    0.0000 C   0  0  0  0  0  0  0  0  0  0  0  0
   10.6575   -8.1125    0.0000 C   0  0  0  0  0  0  0  0  0  0  0  0
   10.6575   -7.2875    0.0000 C   0  0  0  0  0  0  0  0  0  0  0  0
    9.9430   -6.8750    0.0000 C   0  0  0  0  0  0  0  0  0  0  0  0
    9.2285   -7.2875    0.0000 C   0  0  0  0  0  0  0  0  0  0  0  0
    4.9417   -8.1125    0.0000 C   0  0  0  0  0  0  0  0  0  0  0  0
    4.9417   -7.2875    0.0000 O   0  0  0  0  0  0  0  0  0  0  0  0
    5.6562   -6.8750    0.0000 C   0  0  2  0  0  0  0  0  0  0  0  0
    6.4099   -7.2106    0.0000 O   0  0  0  0  0  0  0  0  0  0  0  0
    6.9619   -6.5975    0.0000 C   0  0  1  0  0  0  0  0  0  0  0  0
    6.5494   -5.8830    0.0000 C   0  0  2  0  0  0  0  0  0  0  0  0
    5.7424   -6.0545    0.0000 C   0  0  1  0  0  0  0  0  0  0  0  0
    7.7824   -6.6837    0.0000 C   0  0  0  0  0  0  0  0  0  0  0  0
    8.2673   -6.0163    0.0000 O   0  0  0  0  0  0  0  0  0  0  0  0
    4.9417   -9.7625    0.0000 O   0  0  0  0  0  0  0  0  0  0  0  0
    7.7996   -9.7625    0.0000 O   0  0  0  0  0  0  0  0  0  0  0  0
    5.1293   -5.5025    0.0000 O   0  0  0  0  0  0  0  0  0  0  0  0
    6.8849   -5.1293    0.0000 O   0  0  0  0  0  0  0  0  0  0  0  0
    6.3706  -10.5875    0.0000 O   0  0  0  0  0  0  0  0  0  0  0  0
  1  2  1  0  0  0  0
  2  3  1  0  0  0  0
  3  4  1  0  0  0  0
  4  5  1  0  0  0  0
  5  6  1  0  0  0  0
  6  1  1  0  0  0  0
  5  7  1  1  0  0  0
  7  8  1  0  0  0  0
  8  9  1  0  0  0  0
  9 10  2  0  0  0  0
 10 11  1  0  0  0  0
 11 12  2  0  0  0  0
 12 13  1  0  0  0  0
 13 14  2  0  0  0  0
 14  9  1  0  0  0  0
  1 15  1  1  0  0  0
 15 16  1  0  0  0  0
 17 16  1  1  0  0  0
 17 18  1  0  0  0  0
 18 19  1  0  0  0  0
 19 20  1  0  0  0  0
 20 21  1  0  0  0  0
 21 17  1  0  0  0  0
 19 22  1  1  0  0  0
 22 23  1  0  0  0  0
  2 24  1  6  0  0  0
  4 25  1  6  0  0  0
 21 26  1  6  0  0  0
 20 27  1  6  0  0  0
  3 28  1  1  0  0  0
M  END
>  <cdx:fragmentId>
5

$$$$
