9801.cdx
  Mrv1902 05222410202D          

 26 29  0  0  0  0            999 V2000
    9.7915   -9.3122    0.0000 C   0  0  0  0  0  0  0  0  0  0  0  0
    9.7915   -8.4872    0.0000 C   0  0  0  0  0  0  0  0  0  0  0  0
    9.0771   -8.0747    0.0000 C   0  0  0  0  0  0  0  0  0  0  0  0
    8.3626   -8.4872    0.0000 C   0  0  0  0  0  0  0  0  0  0  0  0
    8.3626   -9.3122    0.0000 C   0  0  0  0  0  0  0  0  0  0  0  0
    9.0771   -9.7247    0.0000 C   0  0  0  0  0  0  0  0  0  0  0  0
    7.6481   -8.0747    0.0000 C   0  0  0  0  0  0  0  0  0  0  0  0
    7.6481   -7.2497    0.0000 C   0  0  0  0  0  0  0  0  0  0  0  0
    6.9337   -6.8372    0.0000 O   0  0  0  0  0  0  0  0  0  0  0  0
    6.2192   -7.2497    0.0000 C   0  0  0  0  0  0  0  0  0  0  0  0
    6.2192   -8.0747    0.0000 C   0  0  0  0  0  0  0  0  0  0  0  0
    6.9337   -8.4872    0.0000 C   0  0  0  0  0  0  0  0  0  0  0  0
    5.5047   -6.8372    0.0000 C   0  0  0  0  0  0  0  0  0  0  0  0
    4.7903   -7.2497    0.0000 C   0  0  0  0  0  0  0  0  0  0  0  0
    4.7903   -8.0747    0.0000 C   0  0  0  0  0  0  0  0  0  0  0  0
    5.5047   -8.4872    0.0000 C   0  0  0  0  0  0  0  0  0  0  0  0
    4.0056   -6.9948    0.0000 O   0  0  0  0  0  0  0  0  0  0  0  0
    3.5207   -7.6622    0.0000 C   0  0  0  0  0  0  0  0  0  0  0  0
    4.0056   -8.3296    0.0000 O   0  0  0  0  0  0  0  0  0  0  0  0
   10.5060   -8.0747    0.0000 O   0  0  0  0  0  0  0  0  0  0  0  0
   10.5060   -9.7247    0.0000 O   0  0  0  0  0  0  0  0  0  0  0  0
   11.2205   -9.3122    0.0000 C   0  0  0  0  0  0  0  0  0  0  0  0
    9.0771  -10.5497    0.0000 O   0  0  0  0  0  0  0  0  0  0  0  0
    9.7915  -10.9622    0.0000 C   0  0  0  0  0  0  0  0  0  0  0  0
    6.9337   -9.3122    0.0000 O   0  0  0  0  0  0  0  0  0  0  0  0
    5.5047   -9.3122    0.0000 O   0  0  0  0  0  0  0  0  0  0  0  0
  1  2  2  0  0  0  0
  2  3  1  0  0  0  0
  3  4  2  0  0  0  0
  4  5  1  0  0  0  0
  5  6  2  0  0  0  0
  6  1  1  0  0  0  0
  4  7  1  0  0  0  0
  7  8  2  0  0  0  0
  8  9  1  0  0  0  0
  9 10  1  0  0  0  0
 10 11  2  0  0  0  0
 11 12  1  0  0  0  0
 12  7  1  0  0  0  0
 10 13  1  0  0  0  0
 13 14  2  0  0  0  0
 14 15  1  0  0  0  0
 15 16  2  0  0  0  0
 16 11  1  0  0  0  0
 14 17  1  0  0  0  0
 17 18  1  0  0  0  0
 18 19  1  0  0  0  0
 19 15  1  0  0  0  0
  2 20  1  0  0  0  0
  1 21  1  0  0  0  0
 21 22  1  0  0  0  0
  6 23  1  0  0  0  0
 23 24  1  0  0  0  0
 12 25  2  0  0  0  0
 16 26  1  0  0  0  0
M  END
>  <cdx:fragmentId>
5

$$$$
