98026.cdx
  Mrv1902 05222410212D          

 25 28  0  0  0  0            999 V2000
    5.5187   -8.1400    0.0000 C   0  0  0  0  0  0  0  0  0  0  0  0
    5.5187   -8.9650    0.0000 C   0  0  0  0  0  0  0  0  0  0  0  0
    6.2331   -9.3775    0.0000 N   0  0  0  0  0  0  0  0  0  0  0  0
    6.9476   -8.9650    0.0000 C   0  0  2  0  0  0  0  0  0  0  0  0
    6.9476   -8.1400    0.0000 C   0  0  0  0  0  0  0  0  0  0  0  0
    6.2331   -7.7275    0.0000 C   0  0  0  0  0  0  0  0  0  0  0  0
    7.6621   -9.3775    0.0000 C   0  0  1  0  0  0  0  0  0  0  0  0
    8.3766   -8.9650    0.0000 C   0  0  1  0  0  0  0  0  0  0  0  0
    8.3766   -8.1400    0.0000 C   0  0  1  0  0  0  0  0  0  0  0  0
    7.6621   -7.7275    0.0000 C   0  0  2  0  0  0  0  0  0  0  0  0
    6.2331  -10.2025    0.0000 C   0  0  0  0  0  0  0  0  0  0  0  0
    6.9476  -10.6150    0.0000 C   0  0  0  0  0  0  0  0  0  0  0  0
    7.6621  -10.2025    0.0000 C   0  0  0  0  0  0  0  0  0  0  0  0
    6.3706   -8.5250    0.0000 C   0  0  0  0  0  0  0  0  0  0  0  0
    6.4879   -7.6319    0.0000 C   0  0  1  0  0  0  0  0  0  0  0  0
    7.1539   -7.4663    0.0000 C   0  0  1  0  0  0  0  0  0  0  0  0
    5.5187   -7.3150    0.0000 H   0  0  0  0  0  0  0  0  0  0  0  0
    8.3766   -9.7900    0.0000 H   0  0  0  0  0  0  0  0  0  0  0  0
    9.1735   -8.7515    0.0000 H   0  0  0  0  0  0  0  0  0  0  0  0
    9.0910   -7.7275    0.0000 H   0  0  0  0  0  0  0  0  0  0  0  0
    8.0746   -7.0130    0.0000 H   0  0  0  0  0  0  0  0  0  0  0  0
    7.5664   -6.7518    0.0000 H   0  0  0  0  0  0  0  0  0  0  0  0
    6.0754   -6.9174    0.0000 C   0  0  0  0  0  0  0  0  0  0  0  0
    6.7414   -6.7518    0.0000 O   0  0  0  0  0  0  0  0  0  0  0  0
    9.0910   -9.3775    0.0000 O   0  0  0  0  0  0  0  0  0  0  0  0
  1  2  1  0  0  0  0
  2  3  1  0  0  0  0
  3  4  1  0  0  0  0
  4  5  1  0  0  0  0
  5  6  1  0  0  0  0
  6  1  1  0  0  0  0
  4  7  1  0  0  0  0
  7  8  1  0  0  0  0
  8  9  1  0  0  0  0
  9 10  1  0  0  0  0
 10  5  1  0  0  0  0
  3 11  1  0  0  0  0
 11 12  1  0  0  0  0
 12 13  1  0  0  0  0
 13  7  1  0  0  0  0
  4 14  1  1  0  0  0
 14 15  1  0  0  0  0
 10 16  1  0  0  0  0
 16 15  1  0  0  0  0
  6 17  1  0  0  0  0
  7 18  1  6  0  0  0
  8 19  1  6  0  0  0
  9 20  1  6  0  0  0
 10 21  1  6  0  0  0
 16 22  1  6  0  0  0
 15 23  1  6  0  0  0
 16 24  1  1  0  0  0
  8 25  1  1  0  0  0
M  END
>  <cdx:fragmentId>
5

$$$$
