98027.cdx
  Mrv1902 05222410202D          

 20 23  0  0  0  0            999 V2000
    5.1062   -7.5350    0.0000 C   0  0  0  0  0  0  0  0  0  0  0  0
    5.1062   -8.3600    0.0000 C   0  0  0  0  0  0  0  0  0  0  0  0
    5.8206   -8.7725    0.0000 N   0  0  0  0  0  0  0  0  0  0  0  0
    6.5351   -8.3600    0.0000 C   0  0  2  0  0  0  0  0  0  0  0  0
    6.5351   -7.5350    0.0000 C   0  0  0  0  0  0  0  0  0  0  0  0
    5.8206   -7.1225    0.0000 C   0  0  0  0  0  0  0  0  0  0  0  0
    7.2496   -8.7725    0.0000 C   0  0  0  0  0  0  0  0  0  0  0  0
    7.9641   -8.3600    0.0000 C   0  0  0  0  0  0  0  0  0  0  0  0
    7.9641   -7.5350    0.0000 C   0  0  2  0  0  0  0  0  0  0  0  0
    7.2496   -7.1225    0.0000 C   0  0  0  0  0  0  0  0  0  0  0  0
    5.8206   -9.5975    0.0000 C   0  0  0  0  0  0  0  0  0  0  0  0
    6.5351  -10.0100    0.0000 C   0  0  0  0  0  0  0  0  0  0  0  0
    7.2496   -9.5975    0.0000 C   0  0  0  0  0  0  0  0  0  0  0  0
    5.9581   -7.9200    0.0000 C   0  0  0  0  0  0  0  0  0  0  0  0
    6.0754   -7.0269    0.0000 C   0  0  1  0  0  0  0  0  0  0  0  0
    6.7414   -6.8613    0.0000 C   0  0  2  0  0  0  0  0  0  0  0  0
    8.6785   -7.1225    0.0000 O   0  0  0  0  0  0  0  0  0  0  0  0
    7.1539   -6.1468    0.0000 O   0  0  0  0  0  0  0  0  0  0  0  0
    5.6629   -6.3124    0.0000 C   0  0  0  0  0  0  0  0  0  0  0  0
    8.6785   -8.7725    0.0000 O   0  0  0  0  0  0  0  0  0  0  0  0
  1  2  1  0  0  0  0
  2  3  1  0  0  0  0
  3  4  1  0  0  0  0
  4  5  1  0  0  0  0
  5  6  2  0  0  0  0
  6  1  1  0  0  0  0
  4  7  1  0  0  0  0
  7  8  1  0  0  0  0
  8  9  1  0  0  0  0
  9 10  1  0  0  0  0
 10  5  1  0  0  0  0
  3 11  1  0  0  0  0
 11 12  1  0  0  0  0
 12 13  1  0  0  0  0
 13  7  1  0  0  0  0
  4 14  1  1  0  0  0
 14 15  1  0  0  0  0
 10 16  1  0  0  0  0
 16 15  1  0  0  0  0
  9 17  1  6  0  0  0
 16 18  1  6  0  0  0
 15 19  1  6  0  0  0
  8 20  2  0  0  0  0
M  END
>  <cdx:fragmentId>
5

$$$$
