98025.cdx
  Mrv1902 05222410212D          

 64 72  0  0  0  0            999 V2000
    6.8380   -8.0710    0.0000 C   0  0  0  0  0  0  0  0  0  0  0  0
    6.8380   -8.7310    0.0000 C   0  0  1  0  0  0  0  0  0  0  0  0
    7.4096   -9.0610    0.0000 C   0  0  0  0  0  0  0  0  0  0  0  0
    7.9812   -8.7310    0.0000 C   0  0  0  0  0  0  0  0  0  0  0  0
    7.9812   -8.0710    0.0000 C   0  0  2  0  0  0  0  0  0  0  0  0
    7.4096   -7.7410    0.0000 C   0  0  0  0  0  0  0  0  0  0  0  0
    8.5527   -9.0610    0.0000 C   0  0  0  0  0  0  0  0  0  0  0  0
    9.1243   -8.7310    0.0000 C   0  0  0  0  0  0  0  0  0  0  0  0
    9.1243   -8.0710    0.0000 C   0  0  0  0  0  0  0  0  0  0  0  0
    8.5527   -7.7410    0.0000 C   0  0  0  0  0  0  0  0  0  0  0  0
    9.6959   -7.7410    0.0000 C   0  0  0  0  0  0  0  0  0  0  0  0
    9.6959   -7.0810    0.0000 C   0  0  2  0  0  0  0  0  0  0  0  0
    9.1243   -6.7510    0.0000 C   0  0  0  0  0  0  0  0  0  0  0  0
    8.5527   -7.0810    0.0000 C   0  0  0  0  0  0  0  0  0  0  0  0
   10.8391   -7.7410    0.0000 C   0  0  0  0  0  0  0  0  0  0  0  0
   10.8391   -7.0810    0.0000 C   0  0  0  0  0  0  0  0  0  0  0  0
   10.2675   -6.7510    0.0000 C   0  0  0  0  0  0  0  0  0  0  0  0
   11.4106   -6.7510    0.0000 O   0  0  0  0  0  0  0  0  0  0  0  0
   11.4106   -6.0910    0.0000 C   0  0  2  0  0  0  0  0  0  0  0  0
   10.2675   -6.0910    0.0000 C   0  0  1  0  0  0  0  0  0  0  0  0
    6.2664   -9.0610    0.0000 O   0  0  0  0  0  0  0  0  0  0  0  0
    7.9812   -7.4110    0.0000 C   0  0  0  0  0  0  0  0  0  0  0  0
    9.6959   -6.4210    0.0000 C   0  0  0  0  0  0  0  0  0  0  0  0
    9.8008   -5.6243    0.0000 C   0  0  0  0  0  0  0  0  0  0  0  0
    5.1226   -7.7541    0.0000 C   0  0  2  0  0  0  0  0  0  0  0  0
    4.5516   -8.0851    0.0000 C   0  0  2  0  0  0  0  0  0  0  0  0
    4.5527   -8.7451    0.0000 C   0  0  1  0  0  0  0  0  0  0  0  0
    5.1248   -9.0741    0.0000 C   0  0  2  0  0  0  0  0  0  0  0  0
    5.6958   -8.7432    0.0000 C   0  0  1  0  0  0  0  0  0  0  0  0
    5.6948   -8.0832    0.0000 O   0  0  0  0  0  0  0  0  0  0  0  0
    5.1215   -7.0941    0.0000 C   0  0  0  0  0  0  0  0  0  0  0  0
    3.9817   -9.0760    0.0000 O   0  0  0  0  0  0  0  0  0  0  0  0
    3.9795   -7.7560    0.0000 O   0  0  0  0  0  0  0  0  0  0  0  0
    5.1259   -9.7341    0.0000 O   0  0  0  0  0  0  0  0  0  0  0  0
    5.6298   -6.7296    0.0000 O   0  0  0  0  0  0  0  0  0  0  0  0
    3.4041  -10.0808    0.0000 C   0  0  1  0  0  0  0  0  0  0  0  0
    3.4098  -10.7408    0.0000 C   0  0  1  0  0  0  0  0  0  0  0  0
    3.9842  -11.0658    0.0000 C   0  0  2  0  0  0  0  0  0  0  0  0
    4.5529  -10.7309    0.0000 C   0  0  2  0  0  0  0  0  0  0  0  0
    4.5472  -10.0709    0.0000 C   0  0  1  0  0  0  0  0  0  0  0  0
    3.9728   -9.7459    0.0000 O   0  0  0  0  0  0  0  0  0  0  0  0
    2.8411  -11.0757    0.0000 O   0  0  0  0  0  0  0  0  0  0  0  0
    2.8296   -9.7557    0.0000 C   0  0  0  0  0  0  0  0  0  0  0  0
    3.9899  -11.7258    0.0000 O   0  0  0  0  0  0  0  0  0  0  0  0
    5.1273  -11.0560    0.0000 O   0  0  0  0  0  0  0  0  0  0  0  0
    3.6484   -6.0477    0.0000 C   0  0  1  0  0  0  0  0  0  0  0  0
    2.9884   -6.0469    0.0000 C   0  0  1  0  0  0  0  0  0  0  0  0
    2.6577   -6.6181    0.0000 C   0  0  2  0  0  0  0  0  0  0  0  0
    2.9871   -7.1901    0.0000 C   0  0  2  0  0  0  0  0  0  0  0  0
    3.6471   -7.1908    0.0000 C   0  0  1  0  0  0  0  0  0  0  0  0
    3.9777   -6.6196    0.0000 O   0  0  0  0  0  0  0  0  0  0  0  0
    2.6591   -5.4749    0.0000 O   0  0  0  0  0  0  0  0  0  0  0  0
    3.9791   -5.4765    0.0000 C   0  0  0  0  0  0  0  0  0  0  0  0
    1.9977   -6.6173    0.0000 O   0  0  0  0  0  0  0  0  0  0  0  0
    2.6564   -7.7613    0.0000 O   0  0  0  0  0  0  0  0  0  0  0  0
    5.5911   -6.0708    0.0000 C   0  0  0  0  0  0  0  0  0  0  0  0
    6.1424   -5.7079    0.0000 O   0  0  0  0  0  0  0  0  0  0  0  0
    5.0012   -5.7748    0.0000 C   0  0  0  0  0  0  0  0  0  0  0  0
   11.9747   -5.7475    0.0000 O   0  0  0  0  0  0  0  0  0  0  0  0
   12.5463   -6.0775    0.0000 C   0  0  0  0  0  0  0  0  0  0  0  0
   13.1411   -5.8795    0.0000 C   0  0  1  0  0  0  0  0  0  0  0  0
   12.8481   -6.5060    0.0000 C   0  0  0  0  0  0  0  0  0  0  0  0
   12.1511   -6.1215    0.0000 C   0  0  0  0  0  0  0  0  0  0  0  0
   13.7127   -6.2095    0.0000 C   0  0  0  0  0  0  0  0  0  0  0  0
  1  2  1  0  0  0  0
  2  3  1  0  0  0  0
  3  4  1  0  0  0  0
  4  5  1  0  0  0  0
  5  6  1  0  0  0  0
  6  1  1  0  0  0  0
  4  7  2  0  0  0  0
  7  8  1  0  0  0  0
  8  9  1  0  0  0  0
  9 10  1  0  0  0  0
 10  5  1  0  0  0  0
  9 11  1  0  0  0  0
 11 12  1  0  0  0  0
 12 13  1  0  0  0  0
 13 14  1  0  0  0  0
 14 10  1  0  0  0  0
 15 16  1  0  0  0  0
 16 17  1  0  0  0  0
 17 12  1  0  0  0  0
 16 18  1  0  0  0  0
 18 19  1  0  0  0  0
 20 17  1  0  0  0  0
 11 15  1  0  0  0  0
 20 19  1  0  0  0  0
  2 21  1  1  0  0  0
  5 22  1  1  0  0  0
 12 23  1  1  0  0  0
 20 24  1  6  0  0  0
 25 26  1  0  0  0  0
 26 27  1  0  0  0  0
 27 28  1  0  0  0  0
 28 29  1  0  0  0  0
 29 30  1  0  0  0  0
 30 25  1  0  0  0  0
 25 31  1  1  0  0  0
 27 32  1  1  0  0  0
 26 33  1  6  0  0  0
 28 34  1  6  0  0  0
 31 35  1  0  0  0  0
 36 37  1  0  0  0  0
 37 38  1  0  0  0  0
 38 39  1  0  0  0  0
 39 40  1  0  0  0  0
 40 41  1  0  0  0  0
 41 36  1  0  0  0  0
 37 42  1  1  0  0  0
 36 43  1  6  0  0  0
 38 44  1  6  0  0  0
 39 45  1  6  0  0  0
 40 34  1  1  0  0  0
 46 47  1  0  0  0  0
 47 48  1  0  0  0  0
 48 49  1  0  0  0  0
 49 50  1  0  0  0  0
 50 51  1  0  0  0  0
 51 46  1  0  0  0  0
 47 52  1  1  0  0  0
 46 53  1  6  0  0  0
 48 54  1  6  0  0  0
 49 55  1  6  0  0  0
 50 33  1  1  0  0  0
 29 21  1  1  0  0  0
 35 56  1  0  0  0  0
 56 57  2  0  0  0  0
 56 58  1  0  0  0  0
 59 60  1  0  0  0  0
 60 61  1  0  0  0  0
 61 62  1  0  0  0  0
 63 62  1  0  0  0  0
 61 64  1  6  0  0  0
 19 59  1  6  0  0  0
 19 63  1  1  0  0  0
M  END
>  <cdx:fragmentId>
5

$$$$
