98020.cdx
  Mrv1902 05222410222D          

 29 32  0  0  0  0            999 V2000
    4.8609  -10.5206    0.0000 C   0  0  1  0  0  0  0  0  0  0  0  0
    4.8609   -9.6956    0.0000 C   0  0  0  0  0  0  0  0  0  0  0  0
    5.5754   -9.2831    0.0000 C   0  0  0  0  0  0  0  0  0  0  0  0
    5.5754  -10.9331    0.0000 C   0  0  0  0  0  0  0  0  0  0  0  0
    6.2898  -10.5206    0.0000 C   0  0  0  0  0  0  0  0  0  0  0  0
    7.0043  -10.9331    0.0000 C   0  0  0  0  0  0  0  0  0  0  0  0
    7.7188  -10.5206    0.0000 C   0  0  0  0  0  0  0  0  0  0  0  0
    7.7188   -9.6956    0.0000 C   0  0  1  0  0  0  0  0  0  0  0  0
    8.4333   -9.2831    0.0000 C   0  0  2  0  0  0  0  0  0  0  0  0
    9.2179   -9.5381    0.0000 C   0  0  0  0  0  0  0  0  0  0  0  0
    9.7028   -8.8706    0.0000 C   0  0  0  0  0  0  0  0  0  0  0  0
    9.2179   -8.2032    0.0000 C   0  0  2  0  0  0  0  0  0  0  0  0
    9.4728   -7.4186    0.0000 C   0  0  1  0  0  0  0  0  0  0  0  0
   10.2798   -7.2471    0.0000 C   0  0  0  0  0  0  0  0  0  0  0  0
   10.5347   -6.4624    0.0000 C   0  0  0  0  0  0  0  0  0  0  0  0
    9.9514   -5.8791    0.0000 C   0  0  0  0  0  0  0  0  0  0  0  0
    8.9208   -6.8055    0.0000 C   0  0  0  0  0  0  0  0  0  0  0  0
    8.4333   -8.4581    0.0000 C   0  0  2  0  0  0  0  0  0  0  0  0
    8.4333   -7.6331    0.0000 C   0  0  0  0  0  0  0  0  0  0  0  0
    7.7188   -8.0456    0.0000 C   0  0  0  0  0  0  0  0  0  0  0  0
    7.0043   -8.4581    0.0000 C   0  0  0  0  0  0  0  0  0  0  0  0
    7.0043   -9.2831    0.0000 C   0  0  2  0  0  0  0  0  0  0  0  0
    6.2898   -9.6956    0.0000 C   0  0  1  0  0  0  0  0  0  0  0  0
    6.2898   -8.8706    0.0000 C   0  0  0  0  0  0  0  0  0  0  0  0
    4.1464  -10.9331    0.0000 O   0  0  0  0  0  0  0  0  0  0  0  0
    7.0043  -10.1081    0.0000 H   0  0  0  0  0  0  0  0  0  0  0  0
    7.7188   -8.8706    0.0000 H   0  0  0  0  0  0  0  0  0  0  0  0
    8.4333  -10.1081    0.0000 H   0  0  0  0  0  0  0  0  0  0  0  0
   10.0148   -7.9897    0.0000 H   0  0  0  0  0  0  0  0  0  0  0  0
  1  2  1  0  0  0  0
  2  3  1  0  0  0  0
  1  4  1  0  0  0  0
  4  5  1  0  0  0  0
  5  6  2  0  0  0  0
  6  7  1  0  0  0  0
  7  8  1  0  0  0  0
  8  9  1  0  0  0  0
  9 10  1  0  0  0  0
 10 11  1  0  0  0  0
 12 11  1  0  0  0  0
 12 13  1  0  0  0  0
 13 14  1  0  0  0  0
 14 15  2  0  0  0  0
 15 16  1  0  0  0  0
 13 17  1  6  0  0  0
 12 18  1  0  0  0  0
  9 18  1  0  0  0  0
 18 19  1  1  0  0  0
 18 20  1  0  0  0  0
 20 21  1  0  0  0  0
 21 22  1  0  0  0  0
  8 22  1  0  0  0  0
 22 23  1  0  0  0  0
  3 23  1  0  0  0  0
  5 23  1  0  0  0  0
 23 24  1  1  0  0  0
  1 25  1  1  0  0  0
 22 26  1  6  0  0  0
  8 27  1  1  0  0  0
  9 28  1  6  0  0  0
 12 29  1  6  0  0  0
M  END
>  <cdx:fragmentId>
5

$$$$
