98022.cdx
  Mrv1902 05222410222D          

 26 27  0  0  0  0            999 V2000
    7.0449   -7.8788    0.0000 C   0  0  0  0  0  0  0  0  0  0  0  0
    7.0449   -8.7037    0.0000 C   0  0  1  0  0  0  0  0  0  0  0  0
    7.7594   -9.1162    0.0000 C   0  0  0  0  0  0  0  0  0  0  0  0
    8.4739   -8.7037    0.0000 C   0  0  0  0  0  0  0  0  0  0  0  0
    8.4739   -7.8788    0.0000 C   0  0  0  0  0  0  0  0  0  0  0  0
    7.7594   -7.4663    0.0000 C   0  0  2  0  0  0  0  0  0  0  0  0
    9.1883   -9.1162    0.0000 C   0  0  0  0  0  0  0  0  0  0  0  0
    9.1883   -7.4663    0.0000 C   0  0  0  0  0  0  0  0  0  0  0  0
    9.9028   -7.8787    0.0000 C   0  0  0  0  0  0  0  0  0  0  0  0
   10.6173   -7.4662    0.0000 C   0  0  0  0  0  0  0  0  0  0  0  0
   11.3318   -7.8787    0.0000 C   0  0  0  0  0  0  0  0  0  0  0  0
   10.6173   -6.6412    0.0000 O   0  0  0  0  0  0  0  0  0  0  0  0
    7.3469   -6.7518    0.0000 C   0  0  0  0  0  0  0  0  0  0  0  0
    6.3305   -9.1162    0.0000 O   0  0  0  0  0  0  0  0  0  0  0  0
    8.1719   -6.7518    0.0000 C   0  0  0  0  0  0  0  0  0  0  0  0
    5.6160   -8.7037    0.0000 C   0  0  2  0  0  0  0  0  0  0  0  0
    5.6160   -7.8788    0.0000 O   0  0  0  0  0  0  0  0  0  0  0  0
    4.9015   -7.4662    0.0000 C   0  0  1  0  0  0  0  0  0  0  0  0
    4.1870   -7.8788    0.0000 C   0  0  2  0  0  0  0  0  0  0  0  0
    4.1870   -8.7037    0.0000 C   0  0  1  0  0  0  0  0  0  0  0  0
    4.9015   -9.1162    0.0000 C   0  0  1  0  0  0  0  0  0  0  0  0
    4.9015   -6.6412    0.0000 C   0  0  0  0  0  0  0  0  0  0  0  0
    3.4726   -9.1162    0.0000 O   0  0  0  0  0  0  0  0  0  0  0  0
    3.4726   -7.4663    0.0000 O   0  0  0  0  0  0  0  0  0  0  0  0
    4.9015   -9.9413    0.0000 O   0  0  0  0  0  0  0  0  0  0  0  0
    4.1870   -6.2287    0.0000 O   0  0  0  0  0  0  0  0  0  0  0  0
  1  2  1  0  0  0  0
  2  3  1  0  0  0  0
  3  4  1  0  0  0  0
  4  5  2  0  0  0  0
  5  6  1  0  0  0  0
  6  1  1  0  0  0  0
  4  7  1  0  0  0  0
  5  8  1  0  0  0  0
  8  9  2  0  0  0  0
  9 10  1  0  0  0  0
 10 11  1  0  0  0  0
 10 12  2  0  0  0  0
  6 13  1  1  0  0  0
  2 14  1  1  0  0  0
  6 15  1  6  0  0  0
 16 14  1  1  0  0  0
 16 17  1  0  0  0  0
 17 18  1  0  0  0  0
 18 19  1  0  0  0  0
 19 20  1  0  0  0  0
 20 21  1  0  0  0  0
 21 16  1  0  0  0  0
 18 22  1  1  0  0  0
 20 23  1  1  0  0  0
 19 24  1  6  0  0  0
 21 25  1  6  0  0  0
 22 26  1  0  0  0  0
M  END
>  <cdx:fragmentId>
5

$$$$
