98021.cdx
  Mrv1902 05222410222D          

 46 50  0  0  0  0            999 V2000
    9.0621   -9.2282    0.0000 C   0  0  1  0  0  0  0  0  0  0  0  0
    8.3143   -8.8798    0.0000 C   0  0  2  0  0  0  0  0  0  0  0  0
    8.1204   -8.0779    0.0000 C   0  0  1  0  0  0  0  0  0  0  0  0
    8.6264   -7.4264    0.0000 C   0  0  2  0  0  0  0  0  0  0  0  0
    9.4513   -7.4158    0.0000 C   0  0  1  0  0  0  0  0  0  0  0  0
    9.9740   -8.0541    0.0000 O   0  0  0  0  0  0  0  0  0  0  0  0
    9.8007   -8.8607    0.0000 C   0  0  0  0  0  0  0  0  0  0  0  0
    8.7342   -8.2088    0.0000 O   0  0  0  0  0  0  0  0  0  0  0  0
    7.6759   -9.4025    0.0000 O   0  0  0  0  0  0  0  0  0  0  0  0
    7.3137   -7.9047    0.0000 O   0  0  0  0  0  0  0  0  0  0  0  0
    8.2589   -6.6877    0.0000 O   0  0  0  0  0  0  0  0  0  0  0  0
    9.0727  -10.0531    0.0000 H   0  0  0  0  0  0  0  0  0  0  0  0
    9.7997   -6.6679    0.0000 H   0  0  0  0  0  0  0  0  0  0  0  0
    6.8387   -4.2213    0.0000 C   0  0  0  0  0  0  0  0  0  0  0  0
    6.8387   -5.0462    0.0000 C   0  0  0  0  0  0  0  0  0  0  0  0
    7.5531   -5.4588    0.0000 C   0  0  0  0  0  0  0  0  0  0  0  0
    8.2676   -5.0462    0.0000 C   0  0  0  0  0  0  0  0  0  0  0  0
    8.2676   -4.2213    0.0000 C   0  0  0  0  0  0  0  0  0  0  0  0
    7.5531   -3.8087    0.0000 C   0  0  0  0  0  0  0  0  0  0  0  0
    6.1242   -3.8087    0.0000 O   0  0  0  0  0  0  0  0  0  0  0  0
    7.5531   -2.9837    0.0000 O   0  0  0  0  0  0  0  0  0  0  0  0
    8.9821   -3.8087    0.0000 O   0  0  0  0  0  0  0  0  0  0  0  0
    7.5531   -6.2837    0.0000 C   0  0  0  0  0  0  0  0  0  0  0  0
    6.8387   -6.6962    0.0000 O   0  0  0  0  0  0  0  0  0  0  0  0
    4.4557   -7.9093    0.0000 C   0  0  0  0  0  0  0  0  0  0  0  0
    5.1728   -8.3172    0.0000 C   0  0  0  0  0  0  0  0  0  0  0  0
    5.8846   -7.9001    0.0000 C   0  0  0  0  0  0  0  0  0  0  0  0
    5.8793   -7.0751    0.0000 C   0  0  0  0  0  0  0  0  0  0  0  0
    5.1622   -6.6672    0.0000 C   0  0  0  0  0  0  0  0  0  0  0  0
    4.4504   -7.0843    0.0000 C   0  0  0  0  0  0  0  0  0  0  0  0
    3.7439   -8.3264    0.0000 O   0  0  0  0  0  0  0  0  0  0  0  0
    3.7333   -6.6764    0.0000 O   0  0  0  0  0  0  0  0  0  0  0  0
    5.1569   -5.8423    0.0000 O   0  0  0  0  0  0  0  0  0  0  0  0
    6.6017   -8.3080    0.0000 C   0  0  0  0  0  0  0  0  0  0  0  0
    6.6070   -9.1330    0.0000 O   0  0  0  0  0  0  0  0  0  0  0  0
    6.6536  -12.0827    0.0000 C   0  0  0  0  0  0  0  0  0  0  0  0
    7.2940  -11.5626    0.0000 C   0  0  0  0  0  0  0  0  0  0  0  0
    7.1638  -10.7479    0.0000 C   0  0  0  0  0  0  0  0  0  0  0  0
    6.3931  -10.4534    0.0000 C   0  0  0  0  0  0  0  0  0  0  0  0
    5.7527  -10.9735    0.0000 C   0  0  0  0  0  0  0  0  0  0  0  0
    5.8829  -11.7881    0.0000 C   0  0  0  0  0  0  0  0  0  0  0  0
    6.7838  -12.8974    0.0000 O   0  0  0  0  0  0  0  0  0  0  0  0
    5.2425  -12.3082    0.0000 O   0  0  0  0  0  0  0  0  0  0  0  0
    4.9821  -10.6789    0.0000 O   0  0  0  0  0  0  0  0  0  0  0  0
    7.8042  -10.2279    0.0000 C   0  0  0  0  0  0  0  0  0  0  0  0
    8.5748  -10.5224    0.0000 O   0  0  0  0  0  0  0  0  0  0  0  0
  1  2  1  0  0  0  0
  2  3  1  0  0  0  0
  3  4  1  0  0  0  0
  4  5  1  0  0  0  0
  5  6  1  0  0  0  0
  6  7  1  0  0  0  0
  1  7  1  0  0  0  0
  1  8  1  0  0  0  0
  5  8  1  0  0  0  0
  2  9  1  1  0  0  0
  3 10  1  6  0  0  0
  4 11  1  1  0  0  0
  1 12  1  1  0  0  0
  5 13  1  6  0  0  0
 14 15  2  0  0  0  0
 15 16  1  0  0  0  0
 16 17  2  0  0  0  0
 17 18  1  0  0  0  0
 18 19  2  0  0  0  0
 19 14  1  0  0  0  0
 14 20  1  0  0  0  0
 19 21  1  0  0  0  0
 18 22  1  0  0  0  0
 16 23  1  0  0  0  0
 23 24  2  0  0  0  0
 25 26  2  0  0  0  0
 26 27  1  0  0  0  0
 27 28  2  0  0  0  0
 28 29  1  0  0  0  0
 29 30  2  0  0  0  0
 30 25  1  0  0  0  0
 25 31  1  0  0  0  0
 30 32  1  0  0  0  0
 29 33  1  0  0  0  0
 27 34  1  0  0  0  0
 34 35  2  0  0  0  0
 36 37  2  0  0  0  0
 37 38  1  0  0  0  0
 38 39  2  0  0  0  0
 39 40  1  0  0  0  0
 40 41  2  0  0  0  0
 41 36  1  0  0  0  0
 36 42  1  0  0  0  0
 41 43  1  0  0  0  0
 40 44  1  0  0  0  0
 38 45  1  0  0  0  0
 45 46  2  0  0  0  0
 23 11  1  0  0  0  0
 34 10  1  0  0  0  0
 45  9  1  0  0  0  0
M  END
>  <cdx:fragmentId>
5

$$$$
