98039.cdx
  Mrv1902 05222410242D          

 31 33  0  0  0  0            999 V2000
    1.0087   -8.1125    0.0000 C   0  0  0  0  0  0  0  0  0  0  0  0
    1.0087   -8.9375    0.0000 C   0  0  0  0  0  0  0  0  0  0  0  0
    1.7231   -9.3500    0.0000 C   0  0  0  0  0  0  0  0  0  0  0  0
    2.4376   -8.9375    0.0000 C   0  0  0  0  0  0  0  0  0  0  0  0
    2.4376   -8.1125    0.0000 C   0  0  0  0  0  0  0  0  0  0  0  0
    1.7231   -7.7000    0.0000 C   0  0  0  0  0  0  0  0  0  0  0  0
    3.1521   -7.7000    0.0000 C   0  0  0  0  0  0  0  0  0  0  0  0
    3.8666   -8.1125    0.0000 O   0  0  0  0  0  0  0  0  0  0  0  0
    4.5810   -7.7000    0.0000 C   0  0  0  0  0  0  0  0  0  0  0  0
    4.5810   -6.8750    0.0000 C   0  0  0  0  0  0  0  0  0  0  0  0
    3.8666   -6.4625    0.0000 C   0  0  0  0  0  0  0  0  0  0  0  0
    3.1521   -6.8750    0.0000 O   0  0  0  0  0  0  0  0  0  0  0  0
    5.2955   -8.1125    0.0000 C   0  0  0  0  0  0  0  0  0  0  0  0
    6.0100   -7.7000    0.0000 C   0  0  0  0  0  0  0  0  0  0  0  0
    6.0100   -6.8750    0.0000 C   0  0  0  0  0  0  0  0  0  0  0  0
    5.2955   -6.4625    0.0000 O   0  0  0  0  0  0  0  0  0  0  0  0
    5.2955   -8.9375    0.0000 O   0  0  0  0  0  0  0  0  0  0  0  0
    6.0100   -9.3500    0.0000 C   0  0  0  0  0  0  0  0  0  0  0  0
    6.7244   -8.9375    0.0000 O   0  0  0  0  0  0  0  0  0  0  0  0
    6.0100  -10.1750    0.0000 C   0  0  0  0  0  0  0  0  0  0  0  0
    6.7244   -6.4625    0.0000 O   0  0  0  0  0  0  0  0  0  0  0  0
    7.4389   -6.8750    0.0000 C   0  0  0  0  0  0  0  0  0  0  0  0
    8.1534   -6.4625    0.0000 C   0  0  0  0  0  0  0  0  0  0  0  0
    8.8679   -6.8750    0.0000 C   0  0  0  0  0  0  0  0  0  0  0  0
    9.5823   -6.4625    0.0000 C   0  0  0  0  0  0  0  0  0  0  0  0
   10.2968   -6.8750    0.0000 C   0  0  0  0  0  0  0  0  0  0  0  0
   11.0113   -6.4625    0.0000 C   0  0  0  0  0  0  0  0  0  0  0  0
   11.7257   -6.8750    0.0000 C   0  0  0  0  0  0  0  0  0  0  0  0
   12.4402   -6.4625    0.0000 C   0  0  0  0  0  0  0  0  0  0  0  0
   13.1547   -6.8750    0.0000 C   0  0  0  0  0  0  0  0  0  0  0  0
   13.8692   -6.4625    0.0000 C   0  0  0  0  0  0  0  0  0  0  0  0
  1  2  2  0  0  0  0
  2  3  1  0  0  0  0
  3  4  2  0  0  0  0
  4  5  1  0  0  0  0
  5  6  2  0  0  0  0
  6  1  1  0  0  0  0
  5  7  1  0  0  0  0
  7  8  1  0  0  0  0
  8  9  1  0  0  0  0
  9 10  1  0  0  0  0
 10 11  1  0  0  0  0
 11 12  1  0  0  0  0
 12  7  1  0  0  0  0
  9 13  1  0  0  0  0
 13 14  1  0  0  0  0
 14 15  1  0  0  0  0
 15 16  1  0  0  0  0
 16 10  1  0  0  0  0
 13 17  1  0  0  0  0
 17 18  1  0  0  0  0
 18 19  2  0  0  0  0
 18 20  1  0  0  0  0
 15 21  1  0  0  0  0
 21 22  1  0  0  0  0
 22 23  1  0  0  0  0
 23 24  1  0  0  0  0
 24 25  1  0  0  0  0
 25 26  1  0  0  0  0
 26 27  1  0  0  0  0
 27 28  1  0  0  0  0
 28 29  1  0  0  0  0
 29 30  1  0  0  0  0
 30 31  1  0  0  0  0
M  END
>  <cdx:fragmentId>
5

$$$$
