98034.cdx
  Mrv1902 05222410222D          

 41 45  0  0  0  0            999 V2000
    6.9439  -10.1829    0.0000 O   0  0  0  0  0  0  0  0  0  0  0  0
    5.5149   -7.7079    0.0000 O   0  0  0  0  0  0  0  0  0  0  0  0
    9.8017   -6.8829    0.0000 C   0  0  0  0  0  0  0  0  0  0  0  0
   10.5162   -6.4704    0.0000 C   0  0  0  0  0  0  0  0  0  0  0  0
   11.2307   -6.8829    0.0000 C   0  0  0  0  0  0  0  0  0  0  0  0
   11.2307   -7.7079    0.0000 C   0  0  0  0  0  0  0  0  0  0  0  0
   10.5162   -8.1204    0.0000 C   0  0  0  0  0  0  0  0  0  0  0  0
    9.8017   -7.7079    0.0000 C   0  0  0  0  0  0  0  0  0  0  0  0
    8.3728  -10.1829    0.0000 O   0  0  0  0  0  0  0  0  0  0  0  0
    8.3728   -7.7079    0.0000 O   0  0  0  0  0  0  0  0  0  0  0  0
    7.6583   -8.1204    0.0000 C   0  0  0  0  0  0  0  0  0  0  0  0
    6.9439   -7.7079    0.0000 C   0  0  0  0  0  0  0  0  0  0  0  0
    6.2294   -8.1204    0.0000 C   0  0  0  0  0  0  0  0  0  0  0  0
    6.2294   -8.9454    0.0000 C   0  0  0  0  0  0  0  0  0  0  0  0
    6.9439   -9.3579    0.0000 C   0  0  0  0  0  0  0  0  0  0  0  0
    7.6583   -8.9454    0.0000 C   0  0  0  0  0  0  0  0  0  0  0  0
    8.3728   -9.3579    0.0000 C   0  0  0  0  0  0  0  0  0  0  0  0
    9.0873   -8.9454    0.0000 C   0  0  0  0  0  0  0  0  0  0  0  0
    9.0873   -8.1204    0.0000 C   0  0  0  0  0  0  0  0  0  0  0  0
    5.5397   -9.3471    0.0000 C   0  0  0  0  0  0  0  0  0  0  0  0
    4.8230   -8.9384    0.0000 O   0  0  0  0  0  0  0  0  0  0  0  0
    4.1108   -9.3546    0.0000 C   0  0  1  0  0  0  0  0  0  0  0  0
    4.1151  -10.1796    0.0000 C   0  0  2  0  0  0  0  0  0  0  0  0
    4.8318  -10.5883    0.0000 C   0  0  1  0  0  0  0  0  0  0  0  0
    5.5440  -10.1721    0.0000 C   0  0  1  0  0  0  0  0  0  0  0  0
    4.8361  -11.4133    0.0000 O   0  0  0  0  0  0  0  0  0  0  0  0
    3.3941   -8.9459    0.0000 C   0  0  0  0  0  0  0  0  0  0  0  0
    6.2607  -10.5808    0.0000 O   0  0  0  0  0  0  0  0  0  0  0  0
    3.4028  -10.5959    0.0000 O   0  0  0  0  0  0  0  0  0  0  0  0
    3.3897   -8.1209    0.0000 O   0  0  0  0  0  0  0  0  0  0  0  0
    6.9390   -6.9101    0.0000 C   0  0  0  0  0  0  0  0  0  0  0  0
    7.6502   -6.4920    0.0000 O   0  0  0  0  0  0  0  0  0  0  0  0
    7.6437   -5.6670    0.0000 C   0  0  1  0  0  0  0  0  0  0  0  0
    6.9260   -5.2602    0.0000 C   0  0  2  0  0  0  0  0  0  0  0  0
    6.2148   -5.6783    0.0000 C   0  0  1  0  0  0  0  0  0  0  0  0
    6.2213   -6.5033    0.0000 C   0  0  1  0  0  0  0  0  0  0  0  0
    5.4971   -5.2714    0.0000 O   0  0  0  0  0  0  0  0  0  0  0  0
    8.3549   -5.2489    0.0000 C   0  0  0  0  0  0  0  0  0  0  0  0
    5.5101   -6.9214    0.0000 O   0  0  0  0  0  0  0  0  0  0  0  0
    6.9195   -4.4352    0.0000 O   0  0  0  0  0  0  0  0  0  0  0  0
    9.0726   -5.6557    0.0000 O   0  0  0  0  0  0  0  0  0  0  0  0
 15  1  1  0  0  0  0
 13  2  1  0  0  0  0
 19  8  1  0  0  0  0
  8  3  2  0  0  0  0
  4  3  1  0  0  0  0
  5  4  2  0  0  0  0
  6  5  1  0  0  0  0
  7  6  2  0  0  0  0
  8  7  1  0  0  0  0
 17  9  2  0  0  0  0
 19 10  1  0  0  0  0
 11 10  1  0  0  0  0
 16 11  2  0  0  0  0
 12 11  1  0  0  0  0
 13 12  2  0  0  0  0
 14 13  1  0  0  0  0
 15 14  2  0  0  0  0
 16 15  1  0  0  0  0
 17 16  1  0  0  0  0
 18 17  1  0  0  0  0
 19 18  2  0  0  0  0
 20 21  1  0  0  0  0
 21 22  1  0  0  0  0
 22 23  1  0  0  0  0
 23 24  1  0  0  0  0
 24 25  1  0  0  0  0
 25 20  1  0  0  0  0
 24 26  1  1  0  0  0
 22 27  1  1  0  0  0
 25 28  1  6  0  0  0
 23 29  1  6  0  0  0
 27 30  1  0  0  0  0
 20 14  1  0  0  0  0
 31 32  1  0  0  0  0
 32 33  1  0  0  0  0
 33 34  1  0  0  0  0
 34 35  1  0  0  0  0
 35 36  1  0  0  0  0
 36 31  1  0  0  0  0
 35 37  1  1  0  0  0
 33 38  1  1  0  0  0
 36 39  1  6  0  0  0
 34 40  1  6  0  0  0
 38 41  1  0  0  0  0
 31 12  1  0  0  0  0
M  END
>  <cdx:fragmentId>
5

$$$$
