98030.cdx
  Mrv1902 05222410212D          

 38 42  0  0  0  0            999 V2000
    4.5012   -8.6625    0.0000 C   0  0  0  0  0  0  0  0  0  0  0  0
    4.5012   -9.4875    0.0000 C   0  0  2  0  0  0  0  0  0  0  0  0
    5.2156   -9.9000    0.0000 C   0  0  1  0  0  0  0  0  0  0  0  0
    5.9301   -9.4875    0.0000 C   0  0  1  0  0  0  0  0  0  0  0  0
    5.9301   -8.6625    0.0000 C   0  0  2  0  0  0  0  0  0  0  0  0
    5.2156   -8.2500    0.0000 C   0  0  0  0  0  0  0  0  0  0  0  0
    6.6446   -9.9000    0.0000 C   0  0  0  0  0  0  0  0  0  0  0  0
    7.3591   -9.4875    0.0000 C   0  0  0  0  0  0  0  0  0  0  0  0
    7.3591   -8.6625    0.0000 C   0  0  2  0  0  0  0  0  0  0  0  0
    6.6446   -8.2500    0.0000 C   0  0  2  0  0  0  0  0  0  0  0  0
    8.1270   -8.3611    0.0000 C   0  0  0  0  0  0  0  0  0  0  0  0
    8.3702   -7.5727    0.0000 C   0  0  0  0  0  0  0  0  0  0  0  0
    7.9055   -6.8911    0.0000 C   0  0  2  0  0  0  0  0  0  0  0  0
    7.0828   -6.8294    0.0000 C   0  0  0  0  0  0  0  0  0  0  0  0
    6.5216   -7.4342    0.0000 C   0  0  0  0  0  0  0  0  0  0  0  0
    9.1929   -7.5111    0.0000 C   0  0  0  0  0  0  0  0  0  0  0  0
    9.5509   -6.7678    0.0000 C   0  0  0  0  0  0  0  0  0  0  0  0
    9.0861   -6.0861    0.0000 C   0  0  2  0  0  0  0  0  0  0  0  0
    8.2634   -6.1478    0.0000 C   0  0  2  0  0  0  0  0  0  0  0  0
    9.4441   -5.3428    0.0000 C   0  0  1  0  0  0  0  0  0  0  0  0
    8.9793   -4.6612    0.0000 C   0  0  1  0  0  0  0  0  0  0  0  0
    8.1566   -4.7229    0.0000 C   0  0  0  0  0  0  0  0  0  0  0  0
    7.7987   -5.4662    0.0000 C   0  0  0  0  0  0  0  0  0  0  0  0
    3.7867   -9.9000    0.0000 O   0  0  0  0  0  0  0  0  0  0  0  0
    5.9301   -7.8375    0.0000 C   0  0  0  0  0  0  0  0  0  0  0  0
    7.3591   -7.8375    0.0000 C   0  0  0  0  0  0  0  0  0  0  0  0
    7.4930   -6.1766    0.0000 H   0  0  0  0  0  0  0  0  0  0  0  0
    8.6736   -5.3717    0.0000 H   0  0  0  0  0  0  0  0  0  0  0  0
   10.1585   -4.9303    0.0000 C   0  0  0  0  0  0  0  0  0  0  0  0
    5.9301  -10.3125    0.0000 H   0  0  0  0  0  0  0  0  0  0  0  0
    4.8031  -10.6145    0.0000 C   0  0  0  0  0  0  0  0  0  0  0  0
    5.6281  -10.6145    0.0000 C   0  0  0  0  0  0  0  0  0  0  0  0
    6.7062   -9.0727    0.0000 H   0  0  0  0  0  0  0  0  0  0  0  0
    8.7282   -6.8294    0.0000 C   0  0  0  0  0  0  0  0  0  0  0  0
   10.1585   -5.7553    0.0000 C   0  0  0  0  0  0  0  0  0  0  0  0
    3.9781  -10.6145    0.0000 O   0  0  0  0  0  0  0  0  0  0  0  0
    9.3373   -3.9179    0.0000 O   0  0  0  0  0  0  0  0  0  0  0  0
   10.3735   -6.7061    0.0000 O   0  0  0  0  0  0  0  0  0  0  0  0
  1  2  1  0  0  0  0
  2  3  1  0  0  0  0
  3  4  1  0  0  0  0
  4  5  1  0  0  0  0
  5  6  1  0  0  0  0
  6  1  1  0  0  0  0
  4  7  1  0  0  0  0
  7  8  1  0  0  0  0
  8  9  1  0  0  0  0
  9 10  1  0  0  0  0
 10  5  1  0  0  0  0
  9 11  1  0  0  0  0
 11 12  1  0  0  0  0
 12 13  1  0  0  0  0
 13 14  1  0  0  0  0
 14 15  1  0  0  0  0
 15 10  1  0  0  0  0
 12 16  2  0  0  0  0
 16 17  1  0  0  0  0
 17 18  1  0  0  0  0
 18 19  1  0  0  0  0
 19 13  1  0  0  0  0
 18 20  1  0  0  0  0
 20 21  1  0  0  0  0
 21 22  1  0  0  0  0
 22 23  1  0  0  0  0
 23 19  1  0  0  0  0
  2 24  1  6  0  0  0
  5 25  1  1  0  0  0
  9 26  1  1  0  0  0
 13 27  1  1  0  0  0
 18 28  1  1  0  0  0
 20 29  1  1  0  0  0
  4 30  1  6  0  0  0
  3 31  1  1  0  0  0
  3 32  1  6  0  0  0
 10 33  1  6  0  0  0
 19 34  1  6  0  0  0
 20 35  1  6  0  0  0
 31 36  1  0  0  0  0
 21 37  1  1  0  0  0
 17 38  2  0  0  0  0
M  END
>  <cdx:fragmentId>
5

$$$$
