98037.cdx
  Mrv1902 05222410232D          

 18 17  0  0  0  0            999 V2000
    3.0590   -7.2631    0.0000 O   0  0  0  0  0  0  0  0  0  0  0  0
    1.6301   -6.4381    0.0000 O   0  0  0  0  0  0  0  0  0  0  0  0
   13.0616   -6.4381    0.0000 C   0  0  0  0  0  0  0  0  0  0  0  0
   12.3471   -6.0256    0.0000 C   0  0  0  0  0  0  0  0  0  0  0  0
   11.6327   -6.4381    0.0000 C   0  0  0  0  0  0  0  0  0  0  0  0
   10.9182   -6.0256    0.0000 C   0  0  0  0  0  0  0  0  0  0  0  0
   10.2037   -6.4381    0.0000 C   0  0  0  0  0  0  0  0  0  0  0  0
    9.4893   -6.0256    0.0000 C   0  0  0  0  0  0  0  0  0  0  0  0
    8.7748   -6.4381    0.0000 C   0  0  0  0  0  0  0  0  0  0  0  0
    8.0603   -6.0256    0.0000 C   0  0  0  0  0  0  0  0  0  0  0  0
    7.3458   -6.4381    0.0000 C   0  0  0  0  0  0  0  0  0  0  0  0
    6.6314   -6.0256    0.0000 C   0  0  0  0  0  0  0  0  0  0  0  0
    5.9169   -6.4381    0.0000 C   0  0  0  0  0  0  0  0  0  0  0  0
    5.2024   -6.0256    0.0000 C   0  0  0  0  0  0  0  0  0  0  0  0
    4.4880   -6.4381    0.0000 C   0  0  0  0  0  0  0  0  0  0  0  0
    3.7735   -6.0256    0.0000 C   0  0  0  0  0  0  0  0  0  0  0  0
    3.0590   -6.4381    0.0000 C   0  0  0  0  0  0  0  0  0  0  0  0
    2.3446   -6.0256    0.0000 C   0  0  0  0  0  0  0  0  0  0  0  0
 17  1  1  0  0  0  0
 18  2  1  0  0  0  0
  4  3  1  0  0  0  0
  5  4  1  0  0  0  0
  6  5  1  0  0  0  0
  7  6  1  0  0  0  0
  8  7  1  0  0  0  0
  9  8  1  0  0  0  0
 10  9  1  0  0  0  0
 11 10  1  0  0  0  0
 12 11  1  0  0  0  0
 13 12  1  0  0  0  0
 14 13  1  0  0  0  0
 15 14  1  0  0  0  0
 16 15  1  0  0  0  0
 17 16  1  0  0  0  0
 18 17  1  0  0  0  0
M  END
>  <cdx:fragmentId>
5

$$$$
