98031.cdx
  Mrv1902 05222410212D          

 43 47  0  0  0  0            999 V2000
    7.1912   -9.1421    0.0000 O   0  0  0  0  0  0  0  0  0  0  0  0
    6.4768   -9.5546    0.0000 C   0  0  2  0  0  0  0  0  0  0  0  0
    5.7623   -9.1421    0.0000 C   0  0  1  0  0  0  0  0  0  0  0  0
    5.7623   -8.3171    0.0000 C   0  0  2  0  0  0  0  0  0  0  0  0
    6.4767   -7.9046    0.0000 C   0  0  2  0  0  0  0  0  0  0  0  0
    7.1912   -8.3171    0.0000 C   0  0  1  0  0  0  0  0  0  0  0  0
    7.9057   -7.9045    0.0000 C   0  0  0  0  0  0  0  0  0  0  0  0
    7.9057   -7.0795    0.0000 O   0  0  0  0  0  0  0  0  0  0  0  0
    6.4767   -7.0796    0.0000 O   0  0  0  0  0  0  0  0  0  0  0  0
    5.0478   -7.9047    0.0000 O   0  0  0  0  0  0  0  0  0  0  0  0
    5.0479   -9.5547    0.0000 O   0  0  0  0  0  0  0  0  0  0  0  0
    5.0480  -12.0297    0.0000 C   0  0  2  0  0  0  0  0  0  0  0  0
    6.4769  -12.8546    0.0000 O   0  0  0  0  0  0  0  0  0  0  0  0
    5.0479  -10.3797    0.0000 O   0  0  0  0  0  0  0  0  0  0  0  0
   11.4781   -9.1419    0.0000 O   0  0  0  0  0  0  0  0  0  0  0  0
    9.3347   -9.5545    0.0000 C   0  0  0  0  0  0  0  0  0  0  0  0
   10.0491   -9.1419    0.0000 C   0  0  0  0  0  0  0  0  0  0  0  0
   10.7636   -9.5544    0.0000 C   0  0  0  0  0  0  0  0  0  0  0  0
   10.7637  -10.3794    0.0000 C   0  0  0  0  0  0  0  0  0  0  0  0
   10.0492  -10.7919    0.0000 C   0  0  0  0  0  0  0  0  0  0  0  0
    9.3347  -10.3795    0.0000 C   0  0  0  0  0  0  0  0  0  0  0  0
    7.9059  -12.8545    0.0000 O   0  0  0  0  0  0  0  0  0  0  0  0
    7.9058  -10.3795    0.0000 O   0  0  0  0  0  0  0  0  0  0  0  0
    7.1913  -10.7921    0.0000 C   0  0  0  0  0  0  0  0  0  0  0  0
    6.4768  -10.3796    0.0000 C   0  0  0  0  0  0  0  0  0  0  0  0
    5.7624  -10.7921    0.0000 C   0  0  0  0  0  0  0  0  0  0  0  0
    5.7624  -11.6171    0.0000 C   0  0  0  0  0  0  0  0  0  0  0  0
    6.4769  -12.0296    0.0000 C   0  0  0  0  0  0  0  0  0  0  0  0
    7.1914  -11.6171    0.0000 C   0  0  0  0  0  0  0  0  0  0  0  0
    7.9058  -12.0295    0.0000 C   0  0  0  0  0  0  0  0  0  0  0  0
    8.6203  -11.6170    0.0000 C   0  0  0  0  0  0  0  0  0  0  0  0
    8.6203  -10.7920    0.0000 C   0  0  0  0  0  0  0  0  0  0  0  0
    4.3335  -11.6172    0.0000 O   0  0  0  0  0  0  0  0  0  0  0  0
    3.6190  -12.0297    0.0000 C   0  0  2  0  0  0  0  0  0  0  0  0
    3.6190  -12.8547    0.0000 C   0  0  1  0  0  0  0  0  0  0  0  0
    4.3335  -13.2671    0.0000 C   0  0  2  0  0  0  0  0  0  0  0  0
    5.0480  -12.8547    0.0000 C   0  0  1  0  0  0  0  0  0  0  0  0
    5.7624  -13.2672    0.0000 O   0  0  0  0  0  0  0  0  0  0  0  0
    4.3334  -14.0921    0.0000 O   0  0  0  0  0  0  0  0  0  0  0  0
    2.9046  -13.2672    0.0000 O   0  0  0  0  0  0  0  0  0  0  0  0
    7.1913   -9.9671    0.0000 H   0  0  0  0  0  0  0  0  0  0  0  0
    5.0480  -11.2047    0.0000 H   0  0  0  0  0  0  0  0  0  0  0  0
    2.9046  -11.6172    0.0000 C   0  0  0  0  0  0  0  0  0  0  0  0
 12 27  1  0  0  0  0
 28 13  1  0  0  0  0
 26 14  1  0  0  0  0
 32 21  1  0  0  0  0
 18 15  1  0  0  0  0
 21 16  2  0  0  0  0
 17 16  1  0  0  0  0
 18 17  2  0  0  0  0
 19 18  1  0  0  0  0
 20 19  2  0  0  0  0
 21 20  1  0  0  0  0
  2 25  1  0  0  0  0
 30 22  2  0  0  0  0
 32 23  1  0  0  0  0
 24 23  1  0  0  0  0
 29 24  2  0  0  0  0
 25 24  1  0  0  0  0
 26 25  2  0  0  0  0
 27 26  1  0  0  0  0
 28 27  2  0  0  0  0
 29 28  1  0  0  0  0
 30 29  1  0  0  0  0
 31 30  1  0  0  0  0
 32 31  2  0  0  0  0
  1  2  1  0  0  0  0
  2  3  1  0  0  0  0
  3  4  1  0  0  0  0
  4  5  1  0  0  0  0
  5  6  1  0  0  0  0
  1  6  1  0  0  0  0
  7  8  1  0  0  0  0
  6  7  1  1  0  0  0
  5  9  1  1  0  0  0
  4 10  1  1  0  0  0
  3 11  1  6  0  0  0
 12 33  1  0  0  0  0
 33 34  1  0  0  0  0
 34 35  1  0  0  0  0
 35 36  1  0  0  0  0
 36 37  1  0  0  0  0
 37 12  1  0  0  0  0
 37 38  1  6  0  0  0
 36 39  1  6  0  0  0
 35 40  1  1  0  0  0
  2 41  1  6  0  0  0
 12 42  1  6  0  0  0
 34 43  1  6  0  0  0
M  END
>  <cdx:groupId>
163

>  <cdx:fragmentId>
164

$$$$
