98033.cdx
  Mrv1902 05222410202D          

 31 34  0  0  0  0            999 V2000
    5.9126  -10.2654    0.0000 O   0  0  0  0  0  0  0  0  0  0  0  0
    4.4837   -7.7904    0.0000 O   0  0  0  0  0  0  0  0  0  0  0  0
    8.7705   -6.9654    0.0000 C   0  0  0  0  0  0  0  0  0  0  0  0
    9.4850   -6.5529    0.0000 C   0  0  0  0  0  0  0  0  0  0  0  0
   10.1994   -6.9654    0.0000 C   0  0  0  0  0  0  0  0  0  0  0  0
   10.1994   -7.7904    0.0000 C   0  0  0  0  0  0  0  0  0  0  0  0
    9.4850   -8.2029    0.0000 C   0  0  0  0  0  0  0  0  0  0  0  0
    8.7705   -7.7904    0.0000 C   0  0  0  0  0  0  0  0  0  0  0  0
    7.3415  -10.2654    0.0000 O   0  0  0  0  0  0  0  0  0  0  0  0
    7.3415   -7.7904    0.0000 O   0  0  0  0  0  0  0  0  0  0  0  0
    6.6271   -8.2029    0.0000 C   0  0  0  0  0  0  0  0  0  0  0  0
    5.9126   -7.7904    0.0000 C   0  0  0  0  0  0  0  0  0  0  0  0
    5.1981   -8.2029    0.0000 C   0  0  0  0  0  0  0  0  0  0  0  0
    5.1981   -9.0279    0.0000 C   0  0  0  0  0  0  0  0  0  0  0  0
    5.9126   -9.4404    0.0000 C   0  0  0  0  0  0  0  0  0  0  0  0
    6.6271   -9.0279    0.0000 C   0  0  0  0  0  0  0  0  0  0  0  0
    7.3415   -9.4404    0.0000 C   0  0  0  0  0  0  0  0  0  0  0  0
    8.0560   -9.0279    0.0000 C   0  0  0  0  0  0  0  0  0  0  0  0
    8.0560   -8.2029    0.0000 C   0  0  0  0  0  0  0  0  0  0  0  0
    4.5084   -9.4296    0.0000 C   0  0  0  0  0  0  0  0  0  0  0  0
    3.7918   -9.0209    0.0000 O   0  0  0  0  0  0  0  0  0  0  0  0
    3.0795   -9.4371    0.0000 C   0  0  1  0  0  0  0  0  0  0  0  0
    3.0839  -10.2621    0.0000 C   0  0  2  0  0  0  0  0  0  0  0  0
    3.8005  -10.6708    0.0000 C   0  0  1  0  0  0  0  0  0  0  0  0
    4.5128  -10.2546    0.0000 C   0  0  1  0  0  0  0  0  0  0  0  0
    3.8049  -11.4958    0.0000 O   0  0  0  0  0  0  0  0  0  0  0  0
    2.3629   -9.0284    0.0000 C   0  0  0  0  0  0  0  0  0  0  0  0
    5.2294  -10.6633    0.0000 O   0  0  0  0  0  0  0  0  0  0  0  0
    2.3716  -10.6784    0.0000 O   0  0  0  0  0  0  0  0  0  0  0  0
    1.6506   -9.4447    0.0000 O   0  0  0  0  0  0  0  0  0  0  0  0
    2.3585   -8.2034    0.0000 O   0  0  0  0  0  0  0  0  0  0  0  0
 15  1  1  0  0  0  0
 13  2  1  0  0  0  0
 19  8  1  0  0  0  0
  8  3  2  0  0  0  0
  4  3  1  0  0  0  0
  5  4  2  0  0  0  0
  6  5  1  0  0  0  0
  7  6  2  0  0  0  0
  8  7  1  0  0  0  0
 17  9  2  0  0  0  0
 19 10  1  0  0  0  0
 11 10  1  0  0  0  0
 16 11  2  0  0  0  0
 12 11  1  0  0  0  0
 13 12  2  0  0  0  0
 14 13  1  0  0  0  0
 15 14  2  0  0  0  0
 16 15  1  0  0  0  0
 17 16  1  0  0  0  0
 18 17  1  0  0  0  0
 19 18  2  0  0  0  0
 20 21  1  0  0  0  0
 21 22  1  0  0  0  0
 22 23  1  0  0  0  0
 23 24  1  0  0  0  0
 24 25  1  0  0  0  0
 25 20  1  0  0  0  0
 24 26  1  1  0  0  0
 22 27  1  1  0  0  0
 25 28  1  6  0  0  0
 23 29  1  6  0  0  0
 27 30  2  0  0  0  0
 27 31  1  0  0  0  0
 20 14  1  0  0  0  0
M  END
>  <cdx:fragmentId>
5

$$$$
