98036.cdx
  Mrv1902 05222410222D          

 32 36  0  0  0  0            999 V2000
    6.8377   -9.7501    0.0000 O   0  0  0  0  0  0  0  0  0  0  0  0
    7.5522   -9.3376    0.0000 C   0  0  0  0  0  0  0  0  0  0  0  0
    8.2667   -9.7501    0.0000 O   0  0  0  0  0  0  0  0  0  0  0  0
    8.9818   -9.3388    0.0000 C   0  0  0  0  0  0  0  0  0  0  0  0
    9.6963   -9.7513    0.0000 C   0  0  0  0  0  0  0  0  0  0  0  0
    9.6963  -10.5763    0.0000 O   0  0  0  0  0  0  0  0  0  0  0  0
   10.4108   -9.3388    0.0000 C   0  0  0  0  0  0  0  0  0  0  0  0
   11.1252   -9.7513    0.0000 O   0  0  0  0  0  0  0  0  0  0  0  0
   10.4108   -8.5138    0.0000 C   0  0  0  0  0  0  0  0  0  0  0  0
    9.6963   -8.1013    0.0000 C   0  0  0  0  0  0  0  0  0  0  0  0
    8.9818   -8.5138    0.0000 C   0  0  0  0  0  0  0  0  0  0  0  0
    8.2674   -8.1013    0.0000 C   0  0  0  0  0  0  0  0  0  0  0  0
    8.2674   -7.2763    0.0000 C   0  0  0  0  0  0  0  0  0  0  0  0
    8.9818   -6.8638    0.0000 O   0  0  0  0  0  0  0  0  0  0  0  0
    9.6963   -7.2763    0.0000 C   0  0  0  0  0  0  0  0  0  0  0  0
   10.4108   -6.8638    0.0000 O   0  0  0  0  0  0  0  0  0  0  0  0
    7.5529   -6.8638    0.0000 C   0  0  0  0  0  0  0  0  0  0  0  0
    7.5529   -6.0388    0.0000 O   0  0  0  0  0  0  0  0  0  0  0  0
    6.8384   -7.2763    0.0000 C   0  0  0  0  0  0  0  0  0  0  0  0
    6.1239   -6.8638    0.0000 O   0  0  0  0  0  0  0  0  0  0  0  0
    6.8384   -8.1013    0.0000 C   0  0  0  0  0  0  0  0  0  0  0  0
    7.5529   -8.5138    0.0000 C   0  0  0  0  0  0  0  0  0  0  0  0
    5.4095   -7.2763    0.0000 C   0  0  1  0  0  0  0  0  0  0  0  0
    5.4095   -8.1013    0.0000 C   0  0  1  0  0  0  0  0  0  0  0  0
    6.1239   -8.5138    0.0000 O   0  0  0  0  0  0  0  0  0  0  0  0
    4.6950   -8.5138    0.0000 C   0  0  2  0  0  0  0  0  0  0  0  0
    4.6950   -9.3388    0.0000 O   0  0  0  0  0  0  0  0  0  0  0  0
    3.9805   -8.1013    0.0000 C   0  0  1  0  0  0  0  0  0  0  0  0
    3.2661   -8.5138    0.0000 O   0  0  0  0  0  0  0  0  0  0  0  0
    3.9805   -7.2763    0.0000 C   0  0  0  0  0  0  0  0  0  0  0  0
    4.6950   -6.8638    0.0000 O   0  0  0  0  0  0  0  0  0  0  0  0
   10.4108  -10.9888    0.0000 C   0  0  0  0  0  0  0  0  0  0  0  0
  1  2  2  0  0  0  0
  2  3  1  0  0  0  0
  3  4  1  0  0  0  0
  4  5  1  0  0  0  0
  5  6  1  0  0  0  0
  5  7  2  0  0  0  0
  7  8  1  0  0  0  0
  7  9  1  0  0  0  0
  9 10  2  0  0  0  0
 10 11  1  0  0  0  0
  4 11  2  0  0  0  0
 11 12  1  0  0  0  0
 12 13  1  0  0  0  0
 13 14  1  0  0  0  0
 14 15  1  0  0  0  0
 10 15  1  0  0  0  0
 15 16  2  0  0  0  0
 13 17  2  0  0  0  0
 17 18  1  0  0  0  0
 17 19  1  0  0  0  0
 19 20  1  0  0  0  0
 19 21  2  0  0  0  0
 21 22  1  0  0  0  0
 12 22  2  0  0  0  0
  2 22  1  0  0  0  0
 23 24  1  0  0  0  0
 24 25  1  1  0  0  0
 24 26  1  0  0  0  0
 26 27  1  6  0  0  0
 26 28  1  0  0  0  0
 28 29  1  1  0  0  0
 28 30  1  0  0  0  0
 30 31  1  0  0  0  0
 23 31  1  0  0  0  0
 23 20  1  1  0  0  0
  6 32  1  0  0  0  0
M  END
>  <cdx:fragmentId>
5

$$$$
