98035.cdx
  Mrv1902 05222410222D          

 26 27  0  0  0  0            999 V2000
    9.9042   -7.8460    0.0000 C   0  0  2  0  0  0  0  0  0  0  0  0
    9.1897   -8.2585    0.0000 C   0  0  0  0  0  0  0  0  0  0  0  0
    9.1897   -9.0835    0.0000 C   0  0  0  0  0  0  0  0  0  0  0  0
    9.9042   -9.4960    0.0000 C   0  0  0  0  0  0  0  0  0  0  0  0
   10.6187   -9.0835    0.0000 C   0  0  0  0  0  0  0  0  0  0  0  0
   10.6187   -8.2585    0.0000 N   0  0  0  0  0  0  0  0  0  0  0  0
    9.9042   -7.0210    0.0000 C   0  0  0  0  0  0  0  0  0  0  0  0
    9.1897   -6.6085    0.0000 O   0  0  0  0  0  0  0  0  0  0  0  0
   10.6187   -6.6085    0.0000 O   0  0  0  0  0  0  0  0  0  0  0  0
   11.3331   -9.4960    0.0000 C   0  0  0  0  0  0  0  0  0  0  0  0
   11.3331  -10.3210    0.0000 O   0  0  0  0  0  0  0  0  0  0  0  0
   12.0476   -9.0835    0.0000 O   0  0  0  0  0  0  0  0  0  0  0  0
    8.4753   -9.4960    0.0000 C   0  0  0  0  0  0  0  0  0  0  0  0
    7.7608   -9.0835    0.0000 C   0  0  0  0  0  0  0  0  0  0  0  0
    7.0463   -9.4960    0.0000 N   0  0  0  0  0  0  0  0  0  0  0  0
    6.3318   -9.0835    0.0000 C   0  0  0  0  0  0  0  0  0  0  0  0
    5.6174   -9.4960    0.0000 C   0  0  0  0  0  0  0  0  0  0  0  0
    4.9029   -9.0835    0.0000 C   0  0  0  0  0  0  0  0  0  0  0  0
    4.1884   -9.4960    0.0000 C   0  0  0  0  0  0  0  0  0  0  0  0
    3.4740   -9.0835    0.0000 C   0  0  0  0  0  0  0  0  0  0  0  0
    3.4740   -8.2585    0.0000 C   0  0  0  0  0  0  0  0  0  0  0  0
    4.1884   -7.8460    0.0000 C   0  0  0  0  0  0  0  0  0  0  0  0
    4.9029   -8.2585    0.0000 C   0  0  0  0  0  0  0  0  0  0  0  0
    2.7595   -9.4960    0.0000 O   0  0  0  0  0  0  0  0  0  0  0  0
    2.0450   -9.0835    0.0000 C   0  0  0  0  0  0  0  0  0  0  0  0
    2.7595   -7.8460    0.0000 O   0  0  0  0  0  0  0  0  0  0  0  0
  1  2  1  0  0  0  0
  2  3  1  0  0  0  0
  3  4  1  0  0  0  0
  4  5  2  0  0  0  0
  5  6  1  0  0  0  0
  1  6  1  0  0  0  0
  7  8  2  0  0  0  0
  7  9  1  0  0  0  0
  1  7  1  1  0  0  0
 10 11  2  0  0  0  0
 10 12  1  0  0  0  0
  5 10  1  0  0  0  0
 13 14  1  0  0  0  0
 16 17  1  0  0  0  0
 15 16  1  0  0  0  0
 18 19  1  0  0  0  0
 19 20  2  0  0  0  0
 20 21  1  0  0  0  0
 21 22  2  0  0  0  0
 22 23  1  0  0  0  0
 18 23  2  0  0  0  0
 24 25  1  0  0  0  0
 20 24  1  0  0  0  0
 21 26  1  0  0  0  0
 17 18  1  0  0  0  0
 14 15  2  0  0  0  0
  3 13  2  0  0  0  0
M  END
>  <cdx:fragmentId>
39

$$$$
