98038.cdx
  Mrv1902 05222410242D          

 15 15  0  0  0  0            999 V2000
    5.6837   -6.2068    0.0000 C   0  0  0  0  0  0  0  0  0  0  0  0
    5.6837   -7.0318    0.0000 C   0  0  0  0  0  0  0  0  0  0  0  0
    6.3981   -7.4443    0.0000 C   0  0  0  0  0  0  0  0  0  0  0  0
    7.1126   -7.0318    0.0000 C   0  0  0  0  0  0  0  0  0  0  0  0
    7.1126   -6.2068    0.0000 C   0  0  0  0  0  0  0  0  0  0  0  0
    6.3981   -5.7943    0.0000 C   0  0  0  0  0  0  0  0  0  0  0  0
    4.9692   -5.7943    0.0000 O   0  0  0  0  0  0  0  0  0  0  0  0
    7.8271   -5.7943    0.0000 O   0  0  0  0  0  0  0  0  0  0  0  0
    6.3981   -8.2693    0.0000 O   0  0  0  0  0  0  0  0  0  0  0  0
    7.8271   -7.4443    0.0000 C   0  0  0  0  0  0  0  0  0  0  0  0
    7.8271   -8.2693    0.0000 O   0  0  0  0  0  0  0  0  0  0  0  0
    8.5416   -7.0318    0.0000 C   0  0  0  0  0  0  0  0  0  0  0  0
    9.2560   -7.4443    0.0000 C   0  0  0  0  0  0  0  0  0  0  0  0
    9.9705   -7.0318    0.0000 C   0  0  0  0  0  0  0  0  0  0  0  0
    6.3981   -4.9693    0.0000 C   0  0  0  0  0  0  0  0  0  0  0  0
  1  2  2  0  0  0  0
  2  3  1  0  0  0  0
  3  4  2  0  0  0  0
  4  5  1  0  0  0  0
  5  6  2  0  0  0  0
  6  1  1  0  0  0  0
  1  7  1  0  0  0  0
  5  8  1  0  0  0  0
  3  9  1  0  0  0  0
  4 10  1  0  0  0  0
 10 11  2  0  0  0  0
 10 12  1  0  0  0  0
 12 13  1  0  0  0  0
 13 14  1  0  0  0  0
  6 15  1  0  0  0  0
M  END
>  <cdx:fragmentId>
5

$$$$
