98049.cdx
  Mrv1902 05222410282D          

 36 38  0  0  0  0            999 V2000
    3.2711   -5.3213    0.0000 C   0  0  2  0  0  0  0  0  0  0  0  0
    2.8586   -4.6068    0.0000 O   0  0  0  0  0  0  0  0  0  0  0  0
    3.6836   -4.6068    0.0000 C   0  0  0  0  0  0  0  0  0  0  0  0
    3.2711   -3.8923    0.0000 O   0  0  0  0  0  0  0  0  0  0  0  0
    4.7001   -6.9712    0.0000 O   0  0  0  0  0  0  0  0  0  0  0  0
    1.8422   -6.9712    0.0000 O   0  0  0  0  0  0  0  0  0  0  0  0
    3.2711   -7.7963    0.0000 O   0  0  0  0  0  0  0  0  0  0  0  0
    4.5086   -4.6068    0.0000 O   0  0  0  0  0  0  0  0  0  0  0  0
    2.5567   -5.7338    0.0000 C   0  0  0  0  0  0  0  0  0  0  0  0
    2.5567   -6.5587    0.0000 C   0  0  2  0  0  0  0  0  0  0  0  0
    3.2711   -6.9712    0.0000 C   0  0  1  0  0  0  0  0  0  0  0  0
    3.9856   -6.5587    0.0000 C   0  0  1  0  0  0  0  0  0  0  0  0
    3.9856   -5.7338    0.0000 C   0  0  0  0  0  0  0  0  0  0  0  0
    5.4146   -6.5587    0.0000 C   0  0  0  0  0  0  0  0  0  0  0  0
    6.1290   -6.9712    0.0000 C   0  0  0  0  0  0  0  0  0  0  0  0
    5.4146   -5.7338    0.0000 O   0  0  0  0  0  0  0  0  0  0  0  0
    6.8435   -6.5587    0.0000 C   0  0  0  0  0  0  0  0  0  0  0  0
    7.5580   -6.9712    0.0000 C   0  0  0  0  0  0  0  0  0  0  0  0
    7.5580   -7.7963    0.0000 C   0  0  0  0  0  0  0  0  0  0  0  0
    8.2724   -8.2088    0.0000 C   0  0  0  0  0  0  0  0  0  0  0  0
    8.9869   -7.7963    0.0000 C   0  0  0  0  0  0  0  0  0  0  0  0
    8.9869   -6.9712    0.0000 C   0  0  0  0  0  0  0  0  0  0  0  0
    8.2724   -6.5587    0.0000 C   0  0  0  0  0  0  0  0  0  0  0  0
    9.7014   -6.5587    0.0000 O   0  0  0  0  0  0  0  0  0  0  0  0
    9.7014   -8.2088    0.0000 O   0  0  0  0  0  0  0  0  0  0  0  0
   10.4158   -6.9712    0.0000 C   0  0  2  0  0  0  0  0  0  0  0  0
   10.4158   -7.7963    0.0000 O   0  0  0  0  0  0  0  0  0  0  0  0
   11.1303   -8.2088    0.0000 C   0  0  1  0  0  0  0  0  0  0  0  0
   11.8448   -7.7963    0.0000 C   0  0  2  0  0  0  0  0  0  0  0  0
   11.8448   -6.9712    0.0000 C   0  0  1  0  0  0  0  0  0  0  0  0
   11.1303   -6.5587    0.0000 C   0  0  1  0  0  0  0  0  0  0  0  0
   11.1303   -9.0337    0.0000 C   0  0  0  0  0  0  0  0  0  0  0  0
   12.5593   -6.5587    0.0000 O   0  0  0  0  0  0  0  0  0  0  0  0
   11.1303   -5.7338    0.0000 O   0  0  0  0  0  0  0  0  0  0  0  0
   12.5593   -8.2088    0.0000 O   0  0  0  0  0  0  0  0  0  0  0  0
   11.8448   -9.4462    0.0000 O   0  0  0  0  0  0  0  0  0  0  0  0
  1  2  1  1  0  0  0
  1  3  1  0  0  0  0
 12  5  1  1  0  0  0
 10  6  1  6  0  0  0
 11  7  1  1  0  0  0
  3  4  2  0  0  0  0
  1 13  1  0  0  0  0
  9  1  1  0  0  0  0
 10  9  1  0  0  0  0
 11 10  1  0  0  0  0
 12 11  1  0  0  0  0
 13 12  1  0  0  0  0
  3  8  1  0  0  0  0
  5 14  1  0  0  0  0
 14 15  1  0  0  0  0
 14 16  2  0  0  0  0
 15 17  2  0  0  0  0
 17 18  1  0  0  0  0
 18 19  2  0  0  0  0
 19 20  1  0  0  0  0
 20 21  2  0  0  0  0
 21 22  1  0  0  0  0
 22 23  2  0  0  0  0
 23 18  1  0  0  0  0
 22 24  1  0  0  0  0
 21 25  1  0  0  0  0
 26 24  1  1  0  0  0
 26 27  1  0  0  0  0
 27 28  1  0  0  0  0
 28 29  1  0  0  0  0
 29 30  1  0  0  0  0
 30 31  1  0  0  0  0
 31 26  1  0  0  0  0
 28 32  1  1  0  0  0
 30 33  1  1  0  0  0
 31 34  1  6  0  0  0
 29 35  1  6  0  0  0
 32 36  1  0  0  0  0
M  END
>  <cdx:fragmentId>
5

$$$$
