98040.cdx
  Mrv1902 05222410202D          

 28 29  0  0  0  0            999 V2000
    9.9042   -9.0620    0.0000 S   0  0  0  0  0  0  0  0  0  0  0  0
   10.3167   -9.7765    0.0000 O   0  0  0  0  0  0  0  0  0  0  0  0
    9.4917   -8.3476    0.0000 O   0  0  0  0  0  0  0  0  0  0  0  0
   10.6187   -8.6495    0.0000 O   0  0  0  0  0  0  0  0  0  0  0  0
    9.1897   -9.4745    0.0000 O   0  0  0  0  0  0  0  0  0  0  0  0
    8.4753   -9.0620    0.0000 C   0  0  0  0  0  0  0  0  0  0  0  0
    7.7608   -9.4745    0.0000 C   0  0  1  0  0  0  0  0  0  0  0  0
    7.7608  -10.2995    0.0000 C   0  0  1  0  0  0  0  0  0  0  0  0
    7.0463  -10.7120    0.0000 C   0  0  2  0  0  0  0  0  0  0  0  0
    6.3318  -10.2995    0.0000 C   0  0  1  0  0  0  0  0  0  0  0  0
    6.3318   -9.4745    0.0000 C   0  0  2  0  0  0  0  0  0  0  0  0
    7.0463   -9.0620    0.0000 O   0  0  0  0  0  0  0  0  0  0  0  0
    5.6174  -10.7120    0.0000 O   0  0  0  0  0  0  0  0  0  0  0  0
    7.0463  -11.5370    0.0000 O   0  0  0  0  0  0  0  0  0  0  0  0
    8.4753  -10.7120    0.0000 O   0  0  0  0  0  0  0  0  0  0  0  0
    5.6174   -9.0620    0.0000 O   0  0  0  0  0  0  0  0  0  0  0  0
    5.6174   -8.2370    0.0000 C   0  0  0  0  0  0  0  0  0  0  0  0
    6.3318   -7.8245    0.0000 C   0  0  0  0  0  0  0  0  0  0  0  0
    6.3318   -6.9995    0.0000 C   0  0  0  0  0  0  0  0  0  0  0  0
    5.6174   -6.5870    0.0000 C   0  0  0  0  0  0  0  0  0  0  0  0
    4.9029   -6.9995    0.0000 C   0  0  0  0  0  0  0  0  0  0  0  0
    4.9029   -7.8245    0.0000 C   0  0  0  0  0  0  0  0  0  0  0  0
    4.1884   -8.2370    0.0000 O   0  0  0  0  0  0  0  0  0  0  0  0
    3.4740   -7.8245    0.0000 C   0  0  0  0  0  0  0  0  0  0  0  0
    7.0463   -8.2370    0.0000 O   0  0  0  0  0  0  0  0  0  0  0  0
    7.7608   -7.8245    0.0000 C   0  0  0  0  0  0  0  0  0  0  0  0
    5.6174   -5.7620    0.0000 C   0  0  0  0  0  0  0  0  0  0  0  0
    4.9029   -5.3495    0.0000 O   0  0  0  0  0  0  0  0  0  0  0  0
  1  2  2  0  0  0  0
  1  3  2  0  0  0  0
  1  4  1  0  0  0  0
  1  5  1  0  0  0  0
  7  8  1  0  0  0  0
  8  9  1  0  0  0  0
  9 10  1  0  0  0  0
 10 11  1  0  0  0  0
 11 12  1  0  0  0  0
  7 12  1  0  0  0  0
 10 13  1  6  0  0  0
  9 14  1  1  0  0  0
  8 15  1  6  0  0  0
 17 18  1  0  0  0  0
 18 19  2  0  0  0  0
 19 20  1  0  0  0  0
 20 21  2  0  0  0  0
 21 22  1  0  0  0  0
 17 22  2  0  0  0  0
 16 17  1  0  0  0  0
 23 24  1  0  0  0  0
 22 23  1  0  0  0  0
 25 26  1  0  0  0  0
 18 25  1  0  0  0  0
 27 28  2  0  0  0  0
 20 27  1  0  0  0  0
 11 16  1  1  0  0  0
  7  6  1  1  0  0  0
  5  6  1  0  0  0  0
M  END
>  <cdx:fragmentId>
37

$$$$
