98047.cdx
  Mrv1902 05222410192D          

 52 56  0  0  0  0            999 V2000
    7.8549   -5.7216    0.0000 C   0  0  0  0  0  0  0  0  0  0  0  0
    8.5693   -6.1341    0.0000 C   0  0  0  0  0  0  0  0  0  0  0  0
    9.2838   -5.7216    0.0000 C   0  0  0  0  0  0  0  0  0  0  0  0
    7.8549   -4.8966    0.0000 O   0  0  0  0  0  0  0  0  0  0  0  0
    9.9983   -6.1341    0.0000 C   0  0  0  0  0  0  0  0  0  0  0  0
   10.7127   -5.7216    0.0000 C   0  0  0  0  0  0  0  0  0  0  0  0
   11.4272   -6.1341    0.0000 C   0  0  0  0  0  0  0  0  0  0  0  0
   11.4272   -6.9591    0.0000 C   0  0  0  0  0  0  0  0  0  0  0  0
   10.7127   -7.3716    0.0000 C   0  0  0  0  0  0  0  0  0  0  0  0
    9.9983   -6.9591    0.0000 C   0  0  0  0  0  0  0  0  0  0  0  0
   12.1417   -7.3716    0.0000 O   0  0  0  0  0  0  0  0  0  0  0  0
    7.1404   -6.1341    0.0000 C   0  0  0  0  0  0  0  0  0  0  0  0
    7.1404   -6.9591    0.0000 C   0  0  0  0  0  0  0  0  0  0  0  0
    6.4259   -7.3716    0.0000 C   0  0  0  0  0  0  0  0  0  0  0  0
    5.7114   -6.9591    0.0000 C   0  0  0  0  0  0  0  0  0  0  0  0
    5.7114   -6.1341    0.0000 C   0  0  0  0  0  0  0  0  0  0  0  0
    6.4259   -5.7216    0.0000 C   0  0  0  0  0  0  0  0  0  0  0  0
    6.4259   -4.8966    0.0000 O   0  0  0  0  0  0  0  0  0  0  0  0
    7.8549   -7.3716    0.0000 O   0  0  0  0  0  0  0  0  0  0  0  0
    3.5669   -8.3326    0.0000 O   0  0  0  0  0  0  0  0  0  0  0  0
    2.0742   -8.3767    0.0000 O   0  0  0  0  0  0  0  0  0  0  0  0
    2.7859   -8.7941    0.0000 C   0  0  2  0  0  0  0  0  0  0  0  0
    2.7802   -9.6190    0.0000 C   0  0  1  0  0  0  0  0  0  0  0  0
    2.0629  -10.0266    0.0000 C   0  0  1  0  0  0  0  0  0  0  0  0
    1.3513   -9.6093    0.0000 C   0  0  2  0  0  0  0  0  0  0  0  0
    1.3569   -8.7843    0.0000 C   0  0  2  0  0  0  0  0  0  0  0  0
    0.6453   -8.3669    0.0000 C   0  0  0  0  0  0  0  0  0  0  0  0
    0.6340  -10.0169    0.0000 O   0  0  0  0  0  0  0  0  0  0  0  0
    2.0573  -10.8516    0.0000 O   0  0  0  0  0  0  0  0  0  0  0  0
    3.4918  -10.0364    0.0000 O   0  0  0  0  0  0  0  0  0  0  0  0
    2.1391   -7.3686    0.0000 O   0  0  0  0  0  0  0  0  0  0  0  0
    2.1408   -5.7186    0.0000 O   0  0  0  0  0  0  0  0  0  0  0  0
    2.8565   -4.4819    0.0000 O   0  0  0  0  0  0  0  0  0  0  0  0
    3.5706   -4.8951    0.0000 C   0  0  0  0  0  0  0  0  0  0  0  0
    3.5697   -5.7201    0.0000 C   0  0  2  0  0  0  0  0  0  0  0  0
    2.8548   -6.1319    0.0000 C   0  0  2  0  0  0  0  0  0  0  0  0
    2.8540   -6.9569    0.0000 C   0  0  1  0  0  0  0  0  0  0  0  0
    3.5680   -7.3701    0.0000 C   0  0  2  0  0  0  0  0  0  0  0  0
    4.2829   -6.9584    0.0000 C   0  0  1  0  0  0  0  0  0  0  0  0
    4.2838   -6.1334    0.0000 O   0  0  0  0  0  0  0  0  0  0  0  0
    4.9970   -7.3716    0.0000 O   0  0  0  0  0  0  0  0  0  0  0  0
   13.5767   -9.8348    0.0000 O   0  0  0  0  0  0  0  0  0  0  0  0
   12.1486  -10.6613    0.0000 O   0  0  0  0  0  0  0  0  0  0  0  0
   10.7197  -10.6628    0.0000 O   0  0  0  0  0  0  0  0  0  0  0  0
   10.7188   -9.8378    0.0000 C   0  0  0  0  0  0  0  0  0  0  0  0
   13.5005   -8.1158    0.0000 O   0  0  0  0  0  0  0  0  0  0  0  0
   11.4329   -9.4245    0.0000 C   0  0  2  0  0  0  0  0  0  0  0  0
   12.1478   -9.8363    0.0000 C   0  0  2  0  0  0  0  0  0  0  0  0
   12.8618   -9.4230    0.0000 C   0  0  1  0  0  0  0  0  0  0  0  0
   12.8610   -8.5980    0.0000 C   0  0  2  0  0  0  0  0  0  0  0  0
   12.1461   -8.1863    0.0000 C   0  0  1  0  0  0  0  0  0  0  0  0
   11.4320   -8.5995    0.0000 O   0  0  0  0  0  0  0  0  0  0  0  0
 39 41  1  1  0  0  0
 37 31  1  1  0  0  0
 36 32  1  6  0  0  0
 35 34  1  1  0  0  0
 34 33  1  0  0  0  0
 38 20  1  6  0  0  0
 40 35  1  0  0  0  0
 36 35  1  0  0  0  0
 37 36  1  0  0  0  0
 38 37  1  0  0  0  0
 39 38  1  0  0  0  0
  1  2  1  0  0  0  0
  2  3  1  0  0  0  0
  1  4  2  0  0  0  0
  5  6  1  0  0  0  0
  6  7  2  0  0  0  0
  7  8  1  0  0  0  0
  8  9  2  0  0  0  0
  9 10  1  0  0  0  0
  5 10  2  0  0  0  0
  8 11  1  0  0  0  0
  3  5  1  0  0  0  0
 12 13  1  0  0  0  0
 13 14  2  0  0  0  0
 14 15  1  0  0  0  0
 15 16  2  0  0  0  0
 16 17  1  0  0  0  0
 12 17  2  0  0  0  0
 17 18  1  0  0  0  0
 13 19  1  0  0  0  0
 40 39  1  0  0  0  0
 21 22  1  0  0  0  0
 22 23  1  0  0  0  0
 23 24  1  0  0  0  0
 24 25  1  0  0  0  0
 25 26  1  0  0  0  0
 21 26  1  0  0  0  0
 26 27  1  6  0  0  0
 25 28  1  1  0  0  0
 24 29  1  6  0  0  0
 23 30  1  6  0  0  0
 22 20  1  1  0  0  0
 15 41  1  0  0  0  0
  1 12  1  0  0  0  0
 49 42  1  1  0  0  0
 48 43  1  6  0  0  0
 47 45  1  1  0  0  0
 45 44  1  0  0  0  0
 50 46  1  6  0  0  0
 52 47  1  0  0  0  0
 48 47  1  0  0  0  0
 49 48  1  0  0  0  0
 50 49  1  0  0  0  0
 51 50  1  0  0  0  0
 52 51  1  0  0  0  0
 51 11  1  1  0  0  0
M  END
>  <cdx:fragmentId>
59

$$$$
