98045.cdx
  Mrv1902 05222410182D          

 36 38  0  0  0  0            999 V2000
    9.2587   -8.2775    0.0000 C   0  0  0  0  0  0  0  0  0  0  0  0
    9.2587   -9.1025    0.0000 C   0  0  2  0  0  0  0  0  0  0  0  0
    9.9731   -9.5150    0.0000 C   0  0  1  0  0  0  0  0  0  0  0  0
   10.6876   -9.1025    0.0000 C   0  0  1  0  0  0  0  0  0  0  0  0
   10.6876   -8.2775    0.0000 C   0  0  0  0  0  0  0  0  0  0  0  0
    9.9731   -7.8650    0.0000 C   0  0  2  0  0  0  0  0  0  0  0  0
    9.5606   -7.1505    0.0000 O   0  0  0  0  0  0  0  0  0  0  0  0
    9.9731  -10.3400    0.0000 O   0  0  0  0  0  0  0  0  0  0  0  0
   11.4021   -9.5150    0.0000 O   0  0  0  0  0  0  0  0  0  0  0  0
    8.5442   -9.5150    0.0000 O   0  0  0  0  0  0  0  0  0  0  0  0
   10.3856   -7.1505    0.0000 C   0  0  0  0  0  0  0  0  0  0  0  0
    9.9731   -6.4361    0.0000 O   0  0  0  0  0  0  0  0  0  0  0  0
   11.2106   -7.1505    0.0000 O   0  0  0  0  0  0  0  0  0  0  0  0
    8.7356   -7.1505    0.0000 C   0  0  0  0  0  0  0  0  0  0  0  0
    8.3231   -6.4361    0.0000 C   0  0  0  0  0  0  0  0  0  0  0  0
    8.3231   -7.8650    0.0000 O   0  0  0  0  0  0  0  0  0  0  0  0
    7.4981   -6.4361    0.0000 C   0  0  0  0  0  0  0  0  0  0  0  0
    7.0856   -7.1505    0.0000 C   0  0  0  0  0  0  0  0  0  0  0  0
    6.2606   -7.1505    0.0000 C   0  0  0  0  0  0  0  0  0  0  0  0
    5.8481   -7.8650    0.0000 C   0  0  0  0  0  0  0  0  0  0  0  0
    6.2606   -8.5795    0.0000 C   0  0  0  0  0  0  0  0  0  0  0  0
    7.0856   -8.5795    0.0000 C   0  0  0  0  0  0  0  0  0  0  0  0
    7.4981   -7.8650    0.0000 C   0  0  0  0  0  0  0  0  0  0  0  0
    5.8481   -9.2939    0.0000 O   0  0  0  0  0  0  0  0  0  0  0  0
    5.0231   -7.8650    0.0000 O   0  0  0  0  0  0  0  0  0  0  0  0
    4.6106   -7.1505    0.0000 C   0  0  2  0  0  0  0  0  0  0  0  0
    5.0231   -6.4361    0.0000 O   0  0  0  0  0  0  0  0  0  0  0  0
    4.6106   -5.7216    0.0000 C   0  0  1  0  0  0  0  0  0  0  0  0
    3.7856   -5.7216    0.0000 C   0  0  2  0  0  0  0  0  0  0  0  0
    3.3731   -6.4361    0.0000 C   0  0  1  0  0  0  0  0  0  0  0  0
    3.7856   -7.1505    0.0000 C   0  0  1  0  0  0  0  0  0  0  0  0
    5.0231   -5.0071    0.0000 C   0  0  0  0  0  0  0  0  0  0  0  0
    2.5481   -6.4361    0.0000 O   0  0  0  0  0  0  0  0  0  0  0  0
    3.3731   -5.0071    0.0000 O   0  0  0  0  0  0  0  0  0  0  0  0
    3.3731   -7.8650    0.0000 O   0  0  0  0  0  0  0  0  0  0  0  0
    4.6106   -4.2926    0.0000 O   0  0  0  0  0  0  0  0  0  0  0  0
  1  2  1  0  0  0  0
  2  3  1  0  0  0  0
  3  4  1  0  0  0  0
  4  5  1  0  0  0  0
  5  6  1  0  0  0  0
  6  1  1  0  0  0  0
  6  7  1  1  0  0  0
  3  8  1  1  0  0  0
  4  9  1  1  0  0  0
  2 10  1  6  0  0  0
  6 11  1  0  0  0  0
 11 12  2  0  0  0  0
 11 13  1  0  0  0  0
  7 14  1  0  0  0  0
 14 15  1  0  0  0  0
 14 16  2  0  0  0  0
 15 17  2  0  0  0  0
 17 18  1  0  0  0  0
 18 19  2  0  0  0  0
 19 20  1  0  0  0  0
 20 21  2  0  0  0  0
 21 22  1  0  0  0  0
 22 23  2  0  0  0  0
 23 18  1  0  0  0  0
 21 24  1  0  0  0  0
 20 25  1  0  0  0  0
 26 25  1  1  0  0  0
 26 27  1  0  0  0  0
 27 28  1  0  0  0  0
 28 29  1  0  0  0  0
 29 30  1  0  0  0  0
 30 31  1  0  0  0  0
 31 26  1  0  0  0  0
 28 32  1  1  0  0  0
 30 33  1  1  0  0  0
 29 34  1  6  0  0  0
 31 35  1  6  0  0  0
 32 36  1  0  0  0  0
M  END
>  <cdx:fragmentId>
110

$$$$
