98041.cdx
  Mrv1902 05222410202D          

 36 38  0  0  0  0            999 V2000
    8.2687   -4.8950    0.0000 C   0  0  0  0  0  0  0  0  0  0  0  0
    8.2687   -5.7200    0.0000 C   0  0  2  0  0  0  0  0  0  0  0  0
    8.9831   -6.1325    0.0000 C   0  0  0  0  0  0  0  0  0  0  0  0
    9.6976   -5.7200    0.0000 C   0  0  1  0  0  0  0  0  0  0  0  0
    9.6976   -4.8950    0.0000 C   0  0  0  0  0  0  0  0  0  0  0  0
    8.9831   -4.4825    0.0000 C   0  0  0  0  0  0  0  0  0  0  0  0
    8.5706   -3.7680    0.0000 O   0  0  0  0  0  0  0  0  0  0  0  0
    8.9831   -6.9575    0.0000 O   0  0  0  0  0  0  0  0  0  0  0  0
   10.4121   -6.1325    0.0000 O   0  0  0  0  0  0  0  0  0  0  0  0
    7.5542   -6.1325    0.0000 O   0  0  0  0  0  0  0  0  0  0  0  0
    9.3956   -3.7680    0.0000 C   0  0  0  0  0  0  0  0  0  0  0  0
    8.9831   -3.0536    0.0000 O   0  0  0  0  0  0  0  0  0  0  0  0
   10.2206   -3.7680    0.0000 O   0  0  0  0  0  0  0  0  0  0  0  0
    8.2687   -7.3700    0.0000 C   0  0  0  0  0  0  0  0  0  0  0  0
    7.5542   -6.9575    0.0000 O   0  0  0  0  0  0  0  0  0  0  0  0
    8.2687   -8.1950    0.0000 C   0  0  0  0  0  0  0  0  0  0  0  0
    7.5542   -8.6075    0.0000 C   0  0  0  0  0  0  0  0  0  0  0  0
    7.5542   -9.4325    0.0000 C   0  0  0  0  0  0  0  0  0  0  0  0
    6.8397   -9.8450    0.0000 C   0  0  0  0  0  0  0  0  0  0  0  0
    6.8397  -10.6700    0.0000 C   0  0  0  0  0  0  0  0  0  0  0  0
    7.5542  -11.0825    0.0000 C   0  0  0  0  0  0  0  0  0  0  0  0
    8.2687  -10.6700    0.0000 C   0  0  0  0  0  0  0  0  0  0  0  0
    8.2687   -9.8450    0.0000 C   0  0  0  0  0  0  0  0  0  0  0  0
    7.5542  -11.9075    0.0000 O   0  0  0  0  0  0  0  0  0  0  0  0
    6.1253  -11.0825    0.0000 O   0  0  0  0  0  0  0  0  0  0  0  0
    5.4108  -10.6700    0.0000 C   0  0  2  0  0  0  0  0  0  0  0  0
    5.4108   -9.8450    0.0000 O   0  0  0  0  0  0  0  0  0  0  0  0
    4.6963   -9.4325    0.0000 C   0  0  1  0  0  0  0  0  0  0  0  0
    3.9819   -9.8450    0.0000 C   0  0  2  0  0  0  0  0  0  0  0  0
    3.9819  -10.6700    0.0000 C   0  0  1  0  0  0  0  0  0  0  0  0
    4.6963  -11.0825    0.0000 C   0  0  1  0  0  0  0  0  0  0  0  0
    4.6963   -8.6075    0.0000 C   0  0  0  0  0  0  0  0  0  0  0  0
    3.2674  -11.0825    0.0000 O   0  0  0  0  0  0  0  0  0  0  0  0
    4.6963  -11.9075    0.0000 O   0  0  0  0  0  0  0  0  0  0  0  0
    3.2674   -9.4325    0.0000 O   0  0  0  0  0  0  0  0  0  0  0  0
    3.9819   -8.1950    0.0000 O   0  0  0  0  0  0  0  0  0  0  0  0
  1  2  1  0  0  0  0
  2  3  1  0  0  0  0
  3  4  1  0  0  0  0
  4  5  1  0  0  0  0
  5  6  1  0  0  0  0
  6  1  1  0  0  0  0
  6  7  1  0  0  0  0
  3  8  1  0  0  0  0
  4  9  1  1  0  0  0
  2 10  1  6  0  0  0
  6 11  1  0  0  0  0
 11 12  2  0  0  0  0
 11 13  1  0  0  0  0
  8 14  1  0  0  0  0
 14 15  2  0  0  0  0
 14 16  1  0  0  0  0
 16 17  2  0  0  0  0
 17 18  1  0  0  0  0
 18 19  2  0  0  0  0
 19 20  1  0  0  0  0
 20 21  2  0  0  0  0
 21 22  1  0  0  0  0
 22 23  2  0  0  0  0
 23 18  1  0  0  0  0
 21 24  1  0  0  0  0
 20 25  1  0  0  0  0
 26 25  1  1  0  0  0
 26 27  1  0  0  0  0
 27 28  1  0  0  0  0
 28 29  1  0  0  0  0
 29 30  1  0  0  0  0
 30 31  1  0  0  0  0
 31 26  1  0  0  0  0
 28 32  1  1  0  0  0
 30 33  1  1  0  0  0
 31 34  1  6  0  0  0
 29 35  1  6  0  0  0
 32 36  1  0  0  0  0
M  END
>  <cdx:fragmentId>
5

$$$$
