98044.cdx
  Mrv1902 05222410182D          

 54 59  0  0  0  0            999 V2000
   10.2029   -8.0522    0.0000 C   0  0  0  0  0  0  0  0  0  0  0  0
   10.2029   -8.8772    0.0000 C   0  0  0  0  0  0  0  0  0  0  0  0
    9.4884   -9.2897    0.0000 C   0  0  0  0  0  0  0  0  0  0  0  0
    8.7739   -8.8772    0.0000 C   0  0  0  0  0  0  0  0  0  0  0  0
    8.7739   -8.0522    0.0000 C   0  0  0  0  0  0  0  0  0  0  0  0
    9.4884   -7.6397    0.0000 O   0  0  0  0  0  0  0  0  0  0  0  0
    8.0595   -7.6397    0.0000 C   0  0  0  0  0  0  0  0  0  0  0  0
    7.3450   -8.0522    0.0000 C   0  0  0  0  0  0  0  0  0  0  0  0
    7.3450   -8.8772    0.0000 C   0  0  0  0  0  0  0  0  0  0  0  0
    8.0595   -9.2897    0.0000 C   0  0  0  0  0  0  0  0  0  0  0  0
    9.4884  -10.1147    0.0000 O   0  0  0  0  0  0  0  0  0  0  0  0
   10.9173   -7.6397    0.0000 C   0  0  0  0  0  0  0  0  0  0  0  0
   11.6318   -8.0522    0.0000 C   0  0  0  0  0  0  0  0  0  0  0  0
   12.3463   -7.6397    0.0000 C   0  0  0  0  0  0  0  0  0  0  0  0
   12.3463   -6.8147    0.0000 C   0  0  0  0  0  0  0  0  0  0  0  0
   11.6318   -6.4022    0.0000 C   0  0  0  0  0  0  0  0  0  0  0  0
   10.9173   -6.8147    0.0000 C   0  0  0  0  0  0  0  0  0  0  0  0
   13.0608   -6.4022    0.0000 O   0  0  0  0  0  0  0  0  0  0  0  0
   13.7752   -6.8147    0.0000 C   0  0  0  0  0  0  0  0  0  0  0  0
   13.0608   -8.0522    0.0000 O   0  0  0  0  0  0  0  0  0  0  0  0
    8.0595  -10.1147    0.0000 O   0  0  0  0  0  0  0  0  0  0  0  0
    6.6305   -7.6397    0.0000 O   0  0  0  0  0  0  0  0  0  0  0  0
    5.9160   -8.0522    0.0000 C   0  0  1  0  0  0  0  0  0  0  0  0
    5.9160   -8.8772    0.0000 C   0  0  2  0  0  0  0  0  0  0  0  0
    6.6305   -9.2897    0.0000 O   0  0  0  0  0  0  0  0  0  0  0  0
    5.2016   -9.2897    0.0000 C   0  0  1  0  0  0  0  0  0  0  0  0
    5.2016  -10.1147    0.0000 O   0  0  0  0  0  0  0  0  0  0  0  0
    4.4871   -8.8772    0.0000 C   0  0  2  0  0  0  0  0  0  0  0  0
    3.7726   -9.2897    0.0000 O   0  0  0  0  0  0  0  0  0  0  0  0
    4.4871   -8.0522    0.0000 C   0  0  2  0  0  0  0  0  0  0  0  0
    5.2016   -7.6397    0.0000 O   0  0  0  0  0  0  0  0  0  0  0  0
    3.7726   -7.6397    0.0000 C   0  0  0  0  0  0  0  0  0  0  0  0
    3.7726   -6.8147    0.0000 O   0  0  0  0  0  0  0  0  0  0  0  0
    3.7726  -10.1147    0.0000 C   0  0  2  0  0  0  0  0  0  0  0  0
    3.0582  -10.5272    0.0000 C   0  0  2  0  0  0  0  0  0  0  0  0
    2.3437  -10.1147    0.0000 O   0  0  0  0  0  0  0  0  0  0  0  0
    3.0582  -11.3522    0.0000 C   0  0  1  0  0  0  0  0  0  0  0  0
    2.3437  -11.7647    0.0000 O   0  0  0  0  0  0  0  0  0  0  0  0
    3.7726  -11.7647    0.0000 C   0  0  2  0  0  0  0  0  0  0  0  0
    3.7726  -12.5897    0.0000 O   0  0  0  0  0  0  0  0  0  0  0  0
    4.4871  -11.3522    0.0000 C   0  0  2  0  0  0  0  0  0  0  0  0
    4.4871  -10.5272    0.0000 O   0  0  0  0  0  0  0  0  0  0  0  0
    5.2016  -11.7647    0.0000 C   0  0  0  0  0  0  0  0  0  0  0  0
    5.2016  -12.5897    0.0000 O   0  0  0  0  0  0  0  0  0  0  0  0
    3.0582   -6.4022    0.0000 C   0  0  2  0  0  0  0  0  0  0  0  0
    3.0582   -5.5772    0.0000 C   0  0  2  0  0  0  0  0  0  0  0  0
    3.7726   -5.1647    0.0000 O   0  0  0  0  0  0  0  0  0  0  0  0
    2.3437   -5.1647    0.0000 C   0  0  2  0  0  0  0  0  0  0  0  0
    2.3437   -4.3397    0.0000 O   0  0  0  0  0  0  0  0  0  0  0  0
    1.6292   -5.5772    0.0000 C   0  0  2  0  0  0  0  0  0  0  0  0
    0.9147   -5.1647    0.0000 O   0  0  0  0  0  0  0  0  0  0  0  0
    1.6292   -6.4022    0.0000 C   0  0  1  0  0  0  0  0  0  0  0  0
    2.3437   -6.8147    0.0000 O   0  0  0  0  0  0  0  0  0  0  0  0
    0.9147   -6.8147    0.0000 C   0  0  0  0  0  0  0  0  0  0  0  0
  1  2  1  0  0  0  0
  2  3  1  0  0  0  0
  3  4  1  0  0  0  0
  4  5  1  0  0  0  0
  5  6  1  0  0  0  0
  1  6  1  0  0  0  0
  7  8  1  0  0  0  0
  8  9  2  0  0  0  0
  9 10  1  0  0  0  0
 10  4  2  0  0  0  0
  7  5  2  0  0  0  0
  3 11  2  0  0  0  0
 12 13  1  0  0  0  0
 13 14  2  0  0  0  0
 14 15  1  0  0  0  0
 15 16  2  0  0  0  0
 16 17  1  0  0  0  0
 12 17  2  0  0  0  0
 18 19  1  0  0  0  0
 15 18  1  0  0  0  0
 14 20  1  0  0  0  0
  1 12  1  0  0  0  0
 10 21  1  0  0  0  0
 23 24  1  0  0  0  0
 24 25  1  6  0  0  0
 24 26  1  0  0  0  0
 26 27  1  1  0  0  0
 26 28  1  0  0  0  0
 28 29  1  6  0  0  0
 28 30  1  0  0  0  0
 30 31  1  0  0  0  0
 30 32  1  1  0  0  0
 32 33  1  0  0  0  0
 23 31  1  0  0  0  0
 34 35  1  0  0  0  0
 35 36  1  1  0  0  0
 35 37  1  0  0  0  0
 37 38  1  6  0  0  0
 37 39  1  0  0  0  0
 39 40  1  1  0  0  0
 39 41  1  0  0  0  0
 41 42  1  0  0  0  0
 41 43  1  6  0  0  0
 43 44  1  0  0  0  0
 34 42  1  0  0  0  0
 34 29  1  1  0  0  0
 45 46  1  0  0  0  0
 46 47  1  1  0  0  0
 46 48  1  0  0  0  0
 48 49  1  1  0  0  0
 48 50  1  0  0  0  0
 50 51  1  1  0  0  0
 50 52  1  0  0  0  0
 52 53  1  0  0  0  0
 52 54  1  1  0  0  0
 45 53  1  0  0  0  0
 45 33  1  1  0  0  0
 23 22  1  1  0  0  0
  8 22  1  0  0  0  0
M  END
>  <cdx:fragmentId>
49

$$$$
