98042.cdx
  Mrv1902 05222410192D          

 27 29  0  0  0  0            999 V2000
    6.2672   -5.9597    0.0000 C   0  0  1  0  0  0  0  0  0  0  0  0
    6.5171   -6.7459    0.0000 C   0  0  1  0  0  0  0  0  0  0  0  0
    7.3421   -6.7512    0.0000 C   0  0  1  0  0  0  0  0  0  0  0  0
    7.6020   -5.9682    0.0000 C   0  0  0  0  0  0  0  0  0  0  0  0
    6.9377   -5.4790    0.0000 O   0  0  0  0  0  0  0  0  0  0  0  0
    5.4842   -5.6998    0.0000 C   0  0  0  0  0  0  0  0  0  0  0  0
    5.3178   -4.8918    0.0000 C   0  0  0  0  0  0  0  0  0  0  0  0
    4.5348   -4.6319    0.0000 C   0  0  0  0  0  0  0  0  0  0  0  0
    3.9182   -5.1800    0.0000 C   0  0  0  0  0  0  0  0  0  0  0  0
    4.0846   -5.9881    0.0000 C   0  0  0  0  0  0  0  0  0  0  0  0
    4.8676   -6.2480    0.0000 C   0  0  0  0  0  0  0  0  0  0  0  0
    3.1352   -4.9201    0.0000 O   0  0  0  0  0  0  0  0  0  0  0  0
    4.3683   -3.8238    0.0000 O   0  0  0  0  0  0  0  0  0  0  0  0
    3.5715   -3.6103    0.0000 C   0  0  0  0  0  0  0  0  0  0  0  0
    6.0280   -7.4103    0.0000 C   0  0  0  0  0  0  0  0  0  0  0  0
    7.8228   -7.4216    0.0000 C   0  0  0  0  0  0  0  0  0  0  0  0
    5.2030   -7.4103    0.0000 O   0  0  0  0  0  0  0  0  0  0  0  0
    8.6475   -7.3981    0.0000 C   0  0  0  0  0  0  0  0  0  0  0  0
    9.0802   -8.1006    0.0000 C   0  0  0  0  0  0  0  0  0  0  0  0
    9.9048   -8.0771    0.0000 C   0  0  0  0  0  0  0  0  0  0  0  0
   10.2968   -7.3512    0.0000 C   0  0  0  0  0  0  0  0  0  0  0  0
    9.8641   -6.6487    0.0000 C   0  0  0  0  0  0  0  0  0  0  0  0
    9.0395   -6.6722    0.0000 C   0  0  0  0  0  0  0  0  0  0  0  0
   11.1215   -7.3277    0.0000 O   0  0  0  0  0  0  0  0  0  0  0  0
   10.2561   -5.9228    0.0000 O   0  0  0  0  0  0  0  0  0  0  0  0
   11.0811   -5.9228    0.0000 C   0  0  0  0  0  0  0  0  0  0  0  0
    8.1390   -6.5376    0.0000 O   0  0  0  0  0  0  0  0  0  0  0  0
  1  2  1  0  0  0  0
  2  3  1  0  0  0  0
  3  4  1  0  0  0  0
  4  5  1  0  0  0  0
  5  1  1  0  0  0  0
  1  6  1  6  0  0  0
  6  7  2  0  0  0  0
  7  8  1  0  0  0  0
  8  9  2  0  0  0  0
  9 10  1  0  0  0  0
 10 11  2  0  0  0  0
 11  6  1  0  0  0  0
  9 12  1  0  0  0  0
  8 13  1  0  0  0  0
 13 14  1  0  0  0  0
  2 15  1  1  0  0  0
  3 16  1  1  0  0  0
 15 17  1  0  0  0  0
 16 18  1  0  0  0  0
 18 19  2  0  0  0  0
 19 20  1  0  0  0  0
 20 21  2  0  0  0  0
 21 22  1  0  0  0  0
 22 23  2  0  0  0  0
 23 18  1  0  0  0  0
 21 24  1  0  0  0  0
 22 25  1  0  0  0  0
 25 26  1  0  0  0  0
  3 27  1  0  0  0  0
M  END
>  <cdx:fragmentId>
122

$$$$
