98043.cdx
  Mrv1902 05222410192D          

 21 22  0  0  0  0            999 V2000
    8.2932   -5.5360    0.0000 C   0  0  0  0  0  0  0  0  0  0  0  0
    8.2932   -6.3610    0.0000 C   0  0  0  0  0  0  0  0  0  0  0  0
    7.5787   -6.7735    0.0000 C   0  0  0  0  0  0  0  0  0  0  0  0
    7.5787   -7.5985    0.0000 C   0  0  0  0  0  0  0  0  0  0  0  0
    8.2932   -8.0110    0.0000 C   0  0  0  0  0  0  0  0  0  0  0  0
    9.0077   -7.5985    0.0000 C   0  0  0  0  0  0  0  0  0  0  0  0
    9.0077   -6.7735    0.0000 C   0  0  0  0  0  0  0  0  0  0  0  0
    7.5787   -5.1235    0.0000 O   0  0  0  0  0  0  0  0  0  0  0  0
    9.0077   -5.1235    0.0000 O   0  0  0  0  0  0  0  0  0  0  0  0
    8.2932   -8.8360    0.0000 O   0  0  0  0  0  0  0  0  0  0  0  0
    7.5787   -9.2485    0.0000 C   0  0  1  0  0  0  0  0  0  0  0  0
    7.5787  -10.0735    0.0000 C   0  0  2  0  0  0  0  0  0  0  0  0
    8.2932  -10.4860    0.0000 O   0  0  0  0  0  0  0  0  0  0  0  0
    6.8643  -10.4860    0.0000 C   0  0  1  0  0  0  0  0  0  0  0  0
    6.8643  -11.3110    0.0000 O   0  0  0  0  0  0  0  0  0  0  0  0
    6.1498  -10.0735    0.0000 C   0  0  2  0  0  0  0  0  0  0  0  0
    5.4353  -10.4860    0.0000 O   0  0  0  0  0  0  0  0  0  0  0  0
    6.1498   -9.2485    0.0000 C   0  0  2  0  0  0  0  0  0  0  0  0
    6.8643   -8.8360    0.0000 O   0  0  0  0  0  0  0  0  0  0  0  0
    5.4353   -8.8360    0.0000 C   0  0  0  0  0  0  0  0  0  0  0  0
    4.7209   -9.2485    0.0000 O   0  0  0  0  0  0  0  0  0  0  0  0
  1  2  1  0  0  0  0
  2  3  1  0  0  0  0
  3  4  2  0  0  0  0
  4  5  1  0  0  0  0
  5  6  2  0  0  0  0
  6  7  1  0  0  0  0
  2  7  2  0  0  0  0
  1  8  2  0  0  0  0
  1  9  1  0  0  0  0
 11 12  1  0  0  0  0
 12 13  1  6  0  0  0
 12 14  1  0  0  0  0
 14 15  1  1  0  0  0
 14 16  1  0  0  0  0
 16 17  1  6  0  0  0
 16 18  1  0  0  0  0
 18 19  1  0  0  0  0
 18 20  1  1  0  0  0
 20 21  1  0  0  0  0
 11 19  1  0  0  0  0
 11 10  1  1  0  0  0
  5 10  1  0  0  0  0
M  END
>  <cdx:fragmentId>
5

$$$$
