98048.cdx
  Mrv1902 05222410282D          

 36 38  0  0  0  0            999 V2000
    7.2237   -8.6075    0.0000 C   0  0  0  0  0  0  0  0  0  0  0  0
    7.2237   -9.4325    0.0000 C   0  0  2  0  0  0  0  0  0  0  0  0
    7.9381   -9.8450    0.0000 C   0  0  0  0  0  0  0  0  0  0  0  0
    8.6526   -9.4325    0.0000 C   0  0  1  0  0  0  0  0  0  0  0  0
    8.6526   -8.6075    0.0000 C   0  0  0  0  0  0  0  0  0  0  0  0
    7.9381   -8.1950    0.0000 C   0  0  0  0  0  0  0  0  0  0  0  0
    7.5256   -7.4805    0.0000 O   0  0  0  0  0  0  0  0  0  0  0  0
    7.9381  -10.6700    0.0000 O   0  0  0  0  0  0  0  0  0  0  0  0
    9.3671   -9.8450    0.0000 O   0  0  0  0  0  0  0  0  0  0  0  0
    6.5092   -9.8450    0.0000 O   0  0  0  0  0  0  0  0  0  0  0  0
    8.3506   -7.4805    0.0000 C   0  0  0  0  0  0  0  0  0  0  0  0
    7.9381   -6.7661    0.0000 O   0  0  0  0  0  0  0  0  0  0  0  0
    9.1756   -7.4805    0.0000 O   0  0  0  0  0  0  0  0  0  0  0  0
    6.7006   -7.4805    0.0000 C   0  0  0  0  0  0  0  0  0  0  0  0
    6.2881   -6.7661    0.0000 C   0  0  0  0  0  0  0  0  0  0  0  0
    6.2881   -8.1950    0.0000 O   0  0  0  0  0  0  0  0  0  0  0  0
    5.4631   -6.7661    0.0000 C   0  0  0  0  0  0  0  0  0  0  0  0
    5.0506   -6.0516    0.0000 C   0  0  0  0  0  0  0  0  0  0  0  0
    5.4631   -5.3371    0.0000 C   0  0  0  0  0  0  0  0  0  0  0  0
    5.0506   -4.6226    0.0000 C   0  0  0  0  0  0  0  0  0  0  0  0
    4.2256   -4.6226    0.0000 C   0  0  0  0  0  0  0  0  0  0  0  0
    3.8131   -5.3371    0.0000 C   0  0  0  0  0  0  0  0  0  0  0  0
    4.2256   -6.0516    0.0000 C   0  0  0  0  0  0  0  0  0  0  0  0
    3.8131   -3.9082    0.0000 O   0  0  0  0  0  0  0  0  0  0  0  0
    5.4631   -3.9082    0.0000 O   0  0  0  0  0  0  0  0  0  0  0  0
    6.2881   -3.9082    0.0000 C   0  0  2  0  0  0  0  0  0  0  0  0
    6.7006   -4.6226    0.0000 O   0  0  0  0  0  0  0  0  0  0  0  0
    7.5256   -4.6226    0.0000 C   0  0  1  0  0  0  0  0  0  0  0  0
    7.9381   -3.9082    0.0000 C   0  0  2  0  0  0  0  0  0  0  0  0
    7.5256   -3.1937    0.0000 C   0  0  1  0  0  0  0  0  0  0  0  0
    6.7006   -3.1937    0.0000 C   0  0  1  0  0  0  0  0  0  0  0  0
    7.9381   -5.3371    0.0000 C   0  0  0  0  0  0  0  0  0  0  0  0
    7.9381   -2.4792    0.0000 O   0  0  0  0  0  0  0  0  0  0  0  0
    6.2881   -2.4792    0.0000 O   0  0  0  0  0  0  0  0  0  0  0  0
    8.7631   -3.9082    0.0000 O   0  0  0  0  0  0  0  0  0  0  0  0
    8.7631   -5.3371    0.0000 O   0  0  0  0  0  0  0  0  0  0  0  0
  1  2  1  0  0  0  0
  2  3  1  0  0  0  0
  3  4  1  0  0  0  0
  4  5  1  0  0  0  0
  5  6  1  0  0  0  0
  6  1  1  0  0  0  0
  6  7  1  0  0  0  0
  3  8  1  0  0  0  0
  4  9  1  1  0  0  0
  2 10  1  6  0  0  0
  6 11  1  0  0  0  0
 11 12  2  0  0  0  0
 11 13  1  0  0  0  0
  7 14  1  0  0  0  0
 14 15  1  0  0  0  0
 14 16  2  0  0  0  0
 15 17  2  0  0  0  0
 17 18  1  0  0  0  0
 18 19  2  0  0  0  0
 19 20  1  0  0  0  0
 20 21  2  0  0  0  0
 21 22  1  0  0  0  0
 22 23  2  0  0  0  0
 23 18  1  0  0  0  0
 21 24  1  0  0  0  0
 20 25  1  0  0  0  0
 26 25  1  1  0  0  0
 26 27  1  0  0  0  0
 27 28  1  0  0  0  0
 28 29  1  0  0  0  0
 29 30  1  0  0  0  0
 30 31  1  0  0  0  0
 31 26  1  0  0  0  0
 28 32  1  1  0  0  0
 30 33  1  1  0  0  0
 31 34  1  6  0  0  0
 29 35  1  6  0  0  0
 32 36  1  0  0  0  0
M  END
>  <cdx:fragmentId>
118

$$$$
