98046.cdx
  Mrv1902 05222410192D          

 41 45  0  0  0  0            999 V2000
    5.4356  -10.9206    0.0000 O   0  0  0  0  0  0  0  0  0  0  0  0
    4.6287  -11.0925    0.0000 C   0  0  2  0  0  0  0  0  0  0  0  0
    4.0765  -10.4796    0.0000 O   0  0  0  0  0  0  0  0  0  0  0  0
    3.2696  -10.6514    0.0000 C   0  0  1  0  0  0  0  0  0  0  0  0
    3.0149  -11.4361    0.0000 C   0  0  2  0  0  0  0  0  0  0  0  0
    3.5672  -12.0490    0.0000 C   0  0  1  0  0  0  0  0  0  0  0  0
    4.3741  -11.8772    0.0000 C   0  0  1  0  0  0  0  0  0  0  0  0
    2.7173  -10.0385    0.0000 C   0  0  0  0  0  0  0  0  0  0  0  0
    3.3125  -12.8337    0.0000 O   0  0  0  0  0  0  0  0  0  0  0  0
    2.2080  -11.6080    0.0000 O   0  0  0  0  0  0  0  0  0  0  0  0
    4.9264  -12.4901    0.0000 O   0  0  0  0  0  0  0  0  0  0  0  0
    1.9104  -10.2104    0.0000 O   0  0  0  0  0  0  0  0  0  0  0  0
    8.7868   -4.0921    0.0000 C   0  0  0  0  0  0  0  0  0  0  0  0
    9.3391   -4.7050    0.0000 C   0  0  0  0  0  0  0  0  0  0  0  0
    9.0845   -5.4897    0.0000 C   0  0  0  0  0  0  0  0  0  0  0  0
    8.2776   -5.6616    0.0000 C   0  0  0  0  0  0  0  0  0  0  0  0
    7.7253   -5.0487    0.0000 C   0  0  0  0  0  0  0  0  0  0  0  0
    7.9799   -4.2640    0.0000 C   0  0  0  0  0  0  0  0  0  0  0  0
    9.0415   -3.3074    0.0000 O   0  0  0  0  0  0  0  0  0  0  0  0
    7.4277   -3.6511    0.0000 O   0  0  0  0  0  0  0  0  0  0  0  0
    6.6208   -3.8229    0.0000 C   0  0  0  0  0  0  0  0  0  0  0  0
   10.1460   -4.5332    0.0000 O   0  0  0  0  0  0  0  0  0  0  0  0
   10.6983   -5.1461    0.0000 C   0  0  0  0  0  0  0  0  0  0  0  0
    5.9690   -7.1145    0.0000 O   0  0  0  0  0  0  0  0  0  0  0  0
    6.4537   -6.4469    0.0000 C   0  0  0  0  0  0  0  0  0  0  0  0
    7.2384   -6.7015    0.0000 C   0  0  1  0  0  0  0  0  0  0  0  0
    7.2387   -7.5265    0.0000 C   0  0  1  0  0  0  0  0  0  0  0  0
    6.4542   -7.7818    0.0000 C   0  0  1  0  0  0  0  0  0  0  0  0
    8.5081   -7.1135    0.0000 O   0  0  0  0  0  0  0  0  0  0  0  0
    8.0229   -6.4463    0.0000 C   0  0  2  0  0  0  0  0  0  0  0  0
    8.0234   -7.7812    0.0000 C   0  0  0  0  0  0  0  0  0  0  0  0
    6.1996   -8.5665    0.0000 C   0  0  0  0  0  0  0  0  0  0  0  0
    5.3926   -8.7383    0.0000 C   0  0  0  0  0  0  0  0  0  0  0  0
    5.1380   -9.5230    0.0000 C   0  0  0  0  0  0  0  0  0  0  0  0
    5.6903  -10.1359    0.0000 C   0  0  0  0  0  0  0  0  0  0  0  0
    6.4972   -9.9641    0.0000 C   0  0  0  0  0  0  0  0  0  0  0  0
    6.7518   -9.1794    0.0000 C   0  0  0  0  0  0  0  0  0  0  0  0
    4.3311   -9.6949    0.0000 O   0  0  0  0  0  0  0  0  0  0  0  0
    3.7475   -9.1117    0.0000 C   0  0  0  0  0  0  0  0  0  0  0  0
    7.2390   -8.3515    0.0000 H   0  0  0  0  0  0  0  0  0  0  0  0
    7.2381   -5.8765    0.0000 H   0  0  0  0  0  0  0  0  0  0  0  0
  2  1  1  1  0  0  0
  2  3  1  0  0  0  0
  3  4  1  0  0  0  0
  4  5  1  0  0  0  0
  5  6  1  0  0  0  0
  6  7  1  0  0  0  0
  7  2  1  0  0  0  0
  4  8  1  1  0  0  0
  6  9  1  1  0  0  0
  5 10  1  6  0  0  0
  7 11  1  6  0  0  0
  8 12  1  0  0  0  0
 13 14  1  0  0  0  0
 14 15  2  0  0  0  0
 15 16  1  0  0  0  0
 16 17  2  0  0  0  0
 17 18  1  0  0  0  0
 13 18  2  0  0  0  0
 13 19  1  0  0  0  0
 20 21  1  0  0  0  0
 18 20  1  0  0  0  0
 22 23  1  0  0  0  0
 14 22  1  0  0  0  0
 24 25  1  0  0  0  0
 25 26  1  0  0  0  0
 26 27  1  0  0  0  0
 27 28  1  0  0  0  0
 24 28  1  0  0  0  0
 29 30  1  0  0  0  0
 29 31  1  0  0  0  0
 30 26  1  0  0  0  0
 31 27  1  0  0  0  0
 32 33  1  0  0  0  0
 33 34  2  0  0  0  0
 34 35  1  0  0  0  0
 35 36  2  0  0  0  0
 36 37  1  0  0  0  0
 32 37  2  0  0  0  0
 38 39  1  0  0  0  0
 34 38  1  0  0  0  0
 35  1  1  0  0  0  0
 28 32  1  1  0  0  0
 30 16  1  1  0  0  0
 27 40  1  1  0  0  0
 26 41  1  1  0  0  0
M  END
>  <cdx:fragmentId>
43

$$$$
