98051.cdx
  Mrv1902 05222410182D          

 70 77  0  0  0  0            999 V2000
    6.6049   -7.0125    0.0000 C   0  0  0  0  0  0  0  0  0  0  0  0
    6.6049   -7.8375    0.0000 C   0  0  1  0  0  0  0  0  0  0  0  0
    7.3194   -8.2500    0.0000 C   0  0  2  0  0  0  0  0  0  0  0  0
    8.0339   -7.8375    0.0000 C   0  0  1  0  0  0  0  0  0  0  0  0
    8.0339   -7.0125    0.0000 C   0  0  2  0  0  0  0  0  0  0  0  0
    7.3194   -6.6000    0.0000 C   0  0  0  0  0  0  0  0  0  0  0  0
    8.7483   -8.2500    0.0000 C   0  0  0  0  0  0  0  0  0  0  0  0
    9.4628   -7.8375    0.0000 C   0  0  0  0  0  0  0  0  0  0  0  0
    9.4628   -7.0125    0.0000 C   0  0  2  0  0  0  0  0  0  0  0  0
    8.7483   -6.6000    0.0000 C   0  0  2  0  0  0  0  0  0  0  0  0
   10.1773   -6.6000    0.0000 C   0  0  1  0  0  0  0  0  0  0  0  0
   10.1773   -5.7750    0.0000 C   0  0  0  0  0  0  0  0  0  0  0  0
    9.4628   -5.3625    0.0000 C   0  0  0  0  0  0  0  0  0  0  0  0
    8.7483   -5.7750    0.0000 C   0  0  0  0  0  0  0  0  0  0  0  0
   10.8918   -7.0125    0.0000 C   0  0  0  0  0  0  0  0  0  0  0  0
   11.6062   -6.6000    0.0000 C   0  0  0  0  0  0  0  0  0  0  0  0
   11.6062   -5.7750    0.0000 C   0  0  2  0  0  0  0  0  0  0  0  0
   10.8918   -5.3625    0.0000 C   0  0  1  0  0  0  0  0  0  0  0  0
   12.3207   -5.3625    0.0000 C   0  0  2  0  0  0  0  0  0  0  0  0
   12.3207   -4.5375    0.0000 C   0  0  0  0  0  0  0  0  0  0  0  0
   11.6062   -4.1250    0.0000 C   0  0  1  0  0  0  0  0  0  0  0  0
   10.8918   -4.5375    0.0000 C   0  0  0  0  0  0  0  0  0  0  0  0
   11.1937   -3.4105    0.0000 C   0  0  0  0  0  0  0  0  0  0  0  0
   10.8918   -6.1875    0.0000 H   0  0  0  0  0  0  0  0  0  0  0  0
   12.3207   -6.1875    0.0000 C   0  0  0  0  0  0  0  0  0  0  0  0
    9.4628   -6.1875    0.0000 C   0  0  0  0  0  0  0  0  0  0  0  0
    8.0339   -6.1875    0.0000 C   0  0  0  0  0  0  0  0  0  0  0  0
    5.8905   -8.2500    0.0000 O   0  0  0  0  0  0  0  0  0  0  0  0
    7.7319   -8.9645    0.0000 C   0  0  0  0  0  0  0  0  0  0  0  0
    6.9069   -8.9645    0.0000 C   0  0  0  0  0  0  0  0  0  0  0  0
    8.0339   -8.6625    0.0000 H   0  0  0  0  0  0  0  0  0  0  0  0
    8.7483   -7.4250    0.0000 H   0  0  0  0  0  0  0  0  0  0  0  0
   10.1773   -7.4250    0.0000 C   0  0  0  0  0  0  0  0  0  0  0  0
   12.0187   -3.4105    0.0000 C   0  0  0  0  0  0  0  0  0  0  0  0
   13.0352   -5.7750    0.0000 O   0  0  0  0  0  0  0  0  0  0  0  0
    5.1760   -7.8375    0.0000 C   0  0  2  0  0  0  0  0  0  0  0  0
    5.1760   -7.0125    0.0000 O   0  0  0  0  0  0  0  0  0  0  0  0
    4.4615   -6.6000    0.0000 C   0  0  1  0  0  0  0  0  0  0  0  0
    3.7470   -7.0125    0.0000 C   0  0  2  0  0  0  0  0  0  0  0  0
    3.7470   -7.8375    0.0000 C   0  0  1  0  0  0  0  0  0  0  0  0
    4.4615   -8.2500    0.0000 C   0  0  1  0  0  0  0  0  0  0  0  0
    4.4615   -5.7750    0.0000 C   0  0  0  0  0  0  0  0  0  0  0  0
    3.0326   -8.2500    0.0000 O   0  0  0  0  0  0  0  0  0  0  0  0
    3.0326   -6.6000    0.0000 O   0  0  0  0  0  0  0  0  0  0  0  0
    4.4615   -9.0750    0.0000 O   0  0  0  0  0  0  0  0  0  0  0  0
    3.7470   -5.3625    0.0000 O   0  0  0  0  0  0  0  0  0  0  0  0
    5.1760   -5.3625    0.0000 O   0  0  0  0  0  0  0  0  0  0  0  0
    4.0557   -9.7933    0.0000 C   0  0  2  0  0  0  0  0  0  0  0  0
    3.2307   -9.8009    0.0000 O   0  0  0  0  0  0  0  0  0  0  0  0
    2.8249  -10.5192    0.0000 C   0  0  1  0  0  0  0  0  0  0  0  0
    3.2440  -11.2298    0.0000 C   0  0  1  0  0  0  0  0  0  0  0  0
    4.0690  -11.2222    0.0000 C   0  0  1  0  0  0  0  0  0  0  0  0
    4.4748  -10.5039    0.0000 C   0  0  1  0  0  0  0  0  0  0  0  0
    1.9999  -10.5269    0.0000 C   0  0  0  0  0  0  0  0  0  0  0  0
    4.4881  -11.9328    0.0000 O   0  0  0  0  0  0  0  0  0  0  0  0
    2.8381  -11.9481    0.0000 O   0  0  0  0  0  0  0  0  0  0  0  0
    5.2998  -10.4962    0.0000 O   0  0  0  0  0  0  0  0  0  0  0  0
    1.5874  -11.2414    0.0000 O   0  0  0  0  0  0  0  0  0  0  0  0
   12.3207   -7.0125    0.0000 O   0  0  0  0  0  0  0  0  0  0  0  0
    5.7067  -12.6425    0.0000 C   0  0  1  0  0  0  0  0  0  0  0  0
    6.5317  -12.6410    0.0000 C   0  0  1  0  0  0  0  0  0  0  0  0
    6.9429  -11.9257    0.0000 C   0  0  2  0  0  0  0  0  0  0  0  0
    6.5291  -11.2120    0.0000 C   0  0  2  0  0  0  0  0  0  0  0  0
    5.7041  -11.2136    0.0000 C   0  0  1  0  0  0  0  0  0  0  0  0
    5.2929  -11.9288    0.0000 O   0  0  0  0  0  0  0  0  0  0  0  0
    6.9455  -13.3547    0.0000 O   0  0  0  0  0  0  0  0  0  0  0  0
    5.2955  -13.3577    0.0000 C   0  0  0  0  0  0  0  0  0  0  0  0
    7.7679  -11.9242    0.0000 O   0  0  0  0  0  0  0  0  0  0  0  0
    6.9402  -10.4968    0.0000 O   0  0  0  0  0  0  0  0  0  0  0  0
    7.3194   -9.6789    0.0000 O   0  0  0  0  0  0  0  0  0  0  0  0
  1  2  1  0  0  0  0
  2  3  1  0  0  0  0
  3  4  1  0  0  0  0
  4  5  1  0  0  0  0
  5  6  1  0  0  0  0
  6  1  1  0  0  0  0
  4  7  1  0  0  0  0
  7  8  1  0  0  0  0
  8  9  1  0  0  0  0
  9 10  1  0  0  0  0
 10  5  1  0  0  0  0
  9 11  1  0  0  0  0
 11 12  1  0  0  0  0
 12 13  2  0  0  0  0
 13 14  1  0  0  0  0
 14 10  1  0  0  0  0
 11 15  1  0  0  0  0
 15 16  1  0  0  0  0
 16 17  1  0  0  0  0
 17 18  1  0  0  0  0
 18 12  1  0  0  0  0
 17 19  1  0  0  0  0
 19 20  1  0  0  0  0
 20 21  1  0  0  0  0
 21 22  1  0  0  0  0
 22 18  1  0  0  0  0
 21 23  1  1  0  0  0
 18 24  1  1  0  0  0
 17 25  1  1  0  0  0
  9 26  1  1  0  0  0
  5 27  1  1  0  0  0
  2 28  1  1  0  0  0
  3 29  1  6  0  0  0
  3 30  1  1  0  0  0
  4 31  1  6  0  0  0
 10 32  1  6  0  0  0
 11 33  1  6  0  0  0
 21 34  1  6  0  0  0
 19 35  1  6  0  0  0
 36 28  1  1  0  0  0
 36 37  1  0  0  0  0
 37 38  1  0  0  0  0
 38 39  1  0  0  0  0
 39 40  1  0  0  0  0
 40 41  1  0  0  0  0
 41 36  1  0  0  0  0
 38 42  1  1  0  0  0
 40 43  1  1  0  0  0
 39 44  1  6  0  0  0
 41 45  1  6  0  0  0
 42 46  1  0  0  0  0
 42 47  2  0  0  0  0
 48 45  1  1  0  0  0
 48 49  1  0  0  0  0
 49 50  1  0  0  0  0
 50 51  1  0  0  0  0
 51 52  1  0  0  0  0
 52 53  1  0  0  0  0
 53 48  1  0  0  0  0
 50 54  1  1  0  0  0
 52 55  1  1  0  0  0
 51 56  1  1  0  0  0
 53 57  1  6  0  0  0
 54 58  1  0  0  0  0
 25 59  2  0  0  0  0
 60 61  1  0  0  0  0
 61 62  1  0  0  0  0
 62 63  1  0  0  0  0
 63 64  1  0  0  0  0
 64 65  1  0  0  0  0
 65 60  1  0  0  0  0
 61 66  1  1  0  0  0
 60 67  1  6  0  0  0
 62 68  1  6  0  0  0
 63 69  1  6  0  0  0
 64 57  1  1  0  0  0
 30 70  1  0  0  0  0
M  END
>  <cdx:fragmentId>
5

$$$$
