98050.cdx
  Mrv1902 05222410182D          

 60 66  0  0  0  0            999 V2000
    6.7837   -7.0950    0.0000 C   0  0  0  0  0  0  0  0  0  0  0  0
    6.7837   -7.9200    0.0000 C   0  0  1  0  0  0  0  0  0  0  0  0
    7.4981   -8.3325    0.0000 C   0  0  2  0  0  0  0  0  0  0  0  0
    8.2126   -7.9200    0.0000 C   0  0  1  0  0  0  0  0  0  0  0  0
    8.2126   -7.0950    0.0000 C   0  0  2  0  0  0  0  0  0  0  0  0
    7.4981   -6.6825    0.0000 C   0  0  0  0  0  0  0  0  0  0  0  0
    8.9271   -8.3325    0.0000 C   0  0  0  0  0  0  0  0  0  0  0  0
    9.6416   -7.9200    0.0000 C   0  0  0  0  0  0  0  0  0  0  0  0
    9.6416   -7.0950    0.0000 C   0  0  2  0  0  0  0  0  0  0  0  0
    8.9271   -6.6825    0.0000 C   0  0  2  0  0  0  0  0  0  0  0  0
   10.3560   -6.6825    0.0000 C   0  0  1  0  0  0  0  0  0  0  0  0
   10.3560   -5.8575    0.0000 C   0  0  0  0  0  0  0  0  0  0  0  0
    9.6416   -5.4450    0.0000 C   0  0  0  0  0  0  0  0  0  0  0  0
    8.9271   -5.8575    0.0000 C   0  0  0  0  0  0  0  0  0  0  0  0
   11.0705   -7.0950    0.0000 C   0  0  0  0  0  0  0  0  0  0  0  0
   11.7850   -6.6825    0.0000 C   0  0  0  0  0  0  0  0  0  0  0  0
   11.7850   -5.8575    0.0000 C   0  0  2  0  0  0  0  0  0  0  0  0
   11.0705   -5.4450    0.0000 C   0  0  1  0  0  0  0  0  0  0  0  0
   12.4994   -5.4450    0.0000 C   0  0  2  0  0  0  0  0  0  0  0  0
   12.4994   -4.6200    0.0000 C   0  0  0  0  0  0  0  0  0  0  0  0
   11.7850   -4.2075    0.0000 C   0  0  1  0  0  0  0  0  0  0  0  0
   11.0705   -4.6200    0.0000 C   0  0  0  0  0  0  0  0  0  0  0  0
   11.3725   -3.4930    0.0000 C   0  0  0  0  0  0  0  0  0  0  0  0
   11.0705   -6.2700    0.0000 H   0  0  0  0  0  0  0  0  0  0  0  0
   12.4994   -6.2700    0.0000 C   0  0  0  0  0  0  0  0  0  0  0  0
    9.6416   -6.2700    0.0000 C   0  0  0  0  0  0  0  0  0  0  0  0
    8.2126   -6.2700    0.0000 C   0  0  0  0  0  0  0  0  0  0  0  0
    6.0692   -8.3325    0.0000 O   0  0  0  0  0  0  0  0  0  0  0  0
    7.9106   -9.0470    0.0000 C   0  0  0  0  0  0  0  0  0  0  0  0
    7.0856   -9.0470    0.0000 C   0  0  0  0  0  0  0  0  0  0  0  0
    8.2126   -8.7450    0.0000 H   0  0  0  0  0  0  0  0  0  0  0  0
    8.9271   -7.5075    0.0000 H   0  0  0  0  0  0  0  0  0  0  0  0
   10.3560   -7.5075    0.0000 C   0  0  0  0  0  0  0  0  0  0  0  0
   12.1975   -3.4930    0.0000 C   0  0  0  0  0  0  0  0  0  0  0  0
   13.2139   -5.8575    0.0000 O   0  0  0  0  0  0  0  0  0  0  0  0
    5.3547   -7.9200    0.0000 C   0  0  2  0  0  0  0  0  0  0  0  0
    5.3547   -7.0950    0.0000 O   0  0  0  0  0  0  0  0  0  0  0  0
    4.6403   -6.6825    0.0000 C   0  0  1  0  0  0  0  0  0  0  0  0
    3.9258   -7.0950    0.0000 C   0  0  2  0  0  0  0  0  0  0  0  0
    3.9258   -7.9200    0.0000 C   0  0  1  0  0  0  0  0  0  0  0  0
    4.6403   -8.3325    0.0000 C   0  0  1  0  0  0  0  0  0  0  0  0
    4.6403   -5.8575    0.0000 C   0  0  0  0  0  0  0  0  0  0  0  0
    3.2113   -8.3325    0.0000 O   0  0  0  0  0  0  0  0  0  0  0  0
    3.2113   -6.6825    0.0000 O   0  0  0  0  0  0  0  0  0  0  0  0
    4.6403   -9.1575    0.0000 O   0  0  0  0  0  0  0  0  0  0  0  0
    3.9258   -5.4450    0.0000 O   0  0  0  0  0  0  0  0  0  0  0  0
    5.3547   -5.4450    0.0000 O   0  0  0  0  0  0  0  0  0  0  0  0
    4.2344   -9.8758    0.0000 C   0  0  2  0  0  0  0  0  0  0  0  0
    3.4095   -9.8834    0.0000 O   0  0  0  0  0  0  0  0  0  0  0  0
    3.0036  -10.6017    0.0000 C   0  0  1  0  0  0  0  0  0  0  0  0
    3.4227  -11.3123    0.0000 C   0  0  1  0  0  0  0  0  0  0  0  0
    4.2477  -11.3047    0.0000 C   0  0  1  0  0  0  0  0  0  0  0  0
    4.6535  -10.5864    0.0000 C   0  0  1  0  0  0  0  0  0  0  0  0
    2.1787  -10.6094    0.0000 C   0  0  0  0  0  0  0  0  0  0  0  0
    4.6668  -12.0153    0.0000 O   0  0  0  0  0  0  0  0  0  0  0  0
    3.0169  -12.0306    0.0000 O   0  0  0  0  0  0  0  0  0  0  0  0
    5.4785  -10.5787    0.0000 O   0  0  0  0  0  0  0  0  0  0  0  0
    1.7662  -11.3239    0.0000 O   0  0  0  0  0  0  0  0  0  0  0  0
   12.4994   -7.0950    0.0000 O   0  0  0  0  0  0  0  0  0  0  0  0
    7.4981   -9.7614    0.0000 O   0  0  0  0  0  0  0  0  0  0  0  0
  1  2  1  0  0  0  0
  2  3  1  0  0  0  0
  3  4  1  0  0  0  0
  4  5  1  0  0  0  0
  5  6  1  0  0  0  0
  6  1  1  0  0  0  0
  4  7  1  0  0  0  0
  7  8  1  0  0  0  0
  8  9  1  0  0  0  0
  9 10  1  0  0  0  0
 10  5  1  0  0  0  0
  9 11  1  0  0  0  0
 11 12  1  0  0  0  0
 12 13  2  0  0  0  0
 13 14  1  0  0  0  0
 14 10  1  0  0  0  0
 11 15  1  0  0  0  0
 15 16  1  0  0  0  0
 16 17  1  0  0  0  0
 17 18  1  0  0  0  0
 18 12  1  0  0  0  0
 17 19  1  0  0  0  0
 19 20  1  0  0  0  0
 20 21  1  0  0  0  0
 21 22  1  0  0  0  0
 22 18  1  0  0  0  0
 21 23  1  1  0  0  0
 18 24  1  1  0  0  0
 17 25  1  1  0  0  0
  9 26  1  1  0  0  0
  5 27  1  1  0  0  0
  2 28  1  1  0  0  0
  3 29  1  6  0  0  0
  3 30  1  1  0  0  0
  4 31  1  6  0  0  0
 10 32  1  6  0  0  0
 11 33  1  6  0  0  0
 21 34  1  6  0  0  0
 19 35  1  6  0  0  0
 36 28  1  1  0  0  0
 36 37  1  0  0  0  0
 37 38  1  0  0  0  0
 38 39  1  0  0  0  0
 39 40  1  0  0  0  0
 40 41  1  0  0  0  0
 41 36  1  0  0  0  0
 38 42  1  1  0  0  0
 40 43  1  1  0  0  0
 39 44  1  6  0  0  0
 41 45  1  6  0  0  0
 42 46  1  0  0  0  0
 42 47  2  0  0  0  0
 48 45  1  1  0  0  0
 48 49  1  0  0  0  0
 49 50  1  0  0  0  0
 50 51  1  0  0  0  0
 51 52  1  0  0  0  0
 52 53  1  0  0  0  0
 53 48  1  0  0  0  0
 50 54  1  1  0  0  0
 52 55  1  1  0  0  0
 51 56  1  1  0  0  0
 53 57  1  6  0  0  0
 54 58  1  0  0  0  0
 25 59  2  0  0  0  0
 30 60  1  0  0  0  0
M  END
>  <cdx:fragmentId>
5

$$$$
