98053.cdx
  Mrv1902 05222410192D          

 25 26  0  0  0  0            999 V2000
    4.7069   -8.1955    0.0000 C   0  0  0  0  0  0  0  0  0  0  0  0
    4.2944   -8.9100    0.0000 C   0  0  0  0  0  0  0  0  0  0  0  0
    4.7069   -9.6245    0.0000 C   0  0  0  0  0  0  0  0  0  0  0  0
    5.5319   -9.6245    0.0000 C   0  0  0  0  0  0  0  0  0  0  0  0
    5.9444   -8.9100    0.0000 C   0  0  0  0  0  0  0  0  0  0  0  0
    5.5319   -8.1955    0.0000 C   0  0  0  0  0  0  0  0  0  0  0  0
    3.4694   -8.9100    0.0000 O   0  0  0  0  0  0  0  0  0  0  0  0
    4.2944  -10.3389    0.0000 O   0  0  0  0  0  0  0  0  0  0  0  0
    5.9444   -7.4811    0.0000 C   0  0  0  0  0  0  0  0  0  0  0  0
    6.7694   -7.4811    0.0000 C   0  0  0  0  0  0  0  0  0  0  0  0
    7.1819   -6.7666    0.0000 C   0  0  0  0  0  0  0  0  0  0  0  0
    7.1819   -8.1955    0.0000 C   0  0  0  0  0  0  0  0  0  0  0  0
    8.0069   -6.7666    0.0000 O   0  0  0  0  0  0  0  0  0  0  0  0
    8.0069   -8.1955    0.0000 C   0  0  0  0  0  0  0  0  0  0  0  0
    8.4194   -8.9100    0.0000 C   0  0  0  0  0  0  0  0  0  0  0  0
    9.2444   -8.9100    0.0000 C   0  0  0  0  0  0  0  0  0  0  0  0
    9.6569   -9.6245    0.0000 C   0  0  0  0  0  0  0  0  0  0  0  0
   10.4819   -9.6245    0.0000 C   0  0  0  0  0  0  0  0  0  0  0  0
   10.8944   -8.9100    0.0000 C   0  0  0  0  0  0  0  0  0  0  0  0
   10.4819   -8.1955    0.0000 C   0  0  0  0  0  0  0  0  0  0  0  0
    9.6569   -8.1955    0.0000 C   0  0  0  0  0  0  0  0  0  0  0  0
    3.0569   -9.6245    0.0000 C   0  0  0  0  0  0  0  0  0  0  0  0
   11.7194   -8.9100    0.0000 O   0  0  0  0  0  0  0  0  0  0  0  0
   10.8944   -7.4811    0.0000 O   0  0  0  0  0  0  0  0  0  0  0  0
   11.7194   -7.4811    0.0000 C   0  0  0  0  0  0  0  0  0  0  0  0
  1  2  2  0  0  0  0
  2  3  1  0  0  0  0
  3  4  2  0  0  0  0
  4  5  1  0  0  0  0
  5  6  2  0  0  0  0
  6  1  1  0  0  0  0
  2  7  1  0  0  0  0
  3  8  1  0  0  0  0
  6  9  1  0  0  0  0
  9 10  2  0  0  0  0
 10 11  1  0  0  0  0
 10 12  1  0  0  0  0
 11 13  2  0  0  0  0
 12 14  1  0  0  0  0
 14 15  2  0  0  0  0
 15 16  1  0  0  0  0
 16 17  2  0  0  0  0
 17 18  1  0  0  0  0
 18 19  2  0  0  0  0
 19 20  1  0  0  0  0
 20 21  2  0  0  0  0
 21 16  1  0  0  0  0
  7 22  1  0  0  0  0
 19 23  1  0  0  0  0
 20 24  1  0  0  0  0
 24 25  1  0  0  0  0
M  END
>  <cdx:fragmentId>
5

$$$$
