98057.cdx
  Mrv1902 05222410192D          

 15 15  0  0  0  0            999 V2000
    5.6837   -6.9300    0.0000 C   0  0  0  0  0  0  0  0  0  0  0  0
    5.6837   -7.7550    0.0000 C   0  0  0  0  0  0  0  0  0  0  0  0
    6.3981   -8.1675    0.0000 C   0  0  0  0  0  0  0  0  0  0  0  0
    7.1126   -7.7550    0.0000 C   0  0  0  0  0  0  0  0  0  0  0  0
    7.1126   -6.9300    0.0000 C   0  0  0  0  0  0  0  0  0  0  0  0
    6.3981   -6.5175    0.0000 C   0  0  0  0  0  0  0  0  0  0  0  0
    4.9692   -6.5175    0.0000 O   0  0  0  0  0  0  0  0  0  0  0  0
    6.3981   -5.6925    0.0000 C   0  0  0  0  0  0  0  0  0  0  0  0
    7.8271   -6.5175    0.0000 O   0  0  0  0  0  0  0  0  0  0  0  0
    6.3981   -8.9925    0.0000 O   0  0  0  0  0  0  0  0  0  0  0  0
    7.8271   -8.1675    0.0000 C   0  0  0  0  0  0  0  0  0  0  0  0
    7.8271   -8.9925    0.0000 O   0  0  0  0  0  0  0  0  0  0  0  0
    8.5416   -7.7550    0.0000 C   0  0  0  0  0  0  0  0  0  0  0  0
    4.2547   -6.9300    0.0000 C   0  0  0  0  0  0  0  0  0  0  0  0
    9.2560   -8.1675    0.0000 C   0  0  0  0  0  0  0  0  0  0  0  0
  1  2  2  0  0  0  0
  2  3  1  0  0  0  0
  3  4  2  0  0  0  0
  4  5  1  0  0  0  0
  5  6  2  0  0  0  0
  6  1  1  0  0  0  0
  1  7  1  0  0  0  0
  6  8  1  0  0  0  0
  5  9  1  0  0  0  0
  3 10  1  0  0  0  0
  4 11  1  0  0  0  0
 11 12  2  0  0  0  0
 11 13  1  0  0  0  0
  7 14  1  0  0  0  0
 13 15  1  0  0  0  0
M  END
>  <cdx:fragmentId>
5

$$$$
