98065.cdx
  Mrv1902 05222410262D          

 77 85  0  0  0  0            999 V2000
    3.8137   -5.3350    0.0000 C   0  0  1  0  0  0  0  0  0  0  0  0
    3.8137   -6.1600    0.0000 C   0  0  1  0  0  0  0  0  0  0  0  0
    4.5281   -6.5725    0.0000 C   0  0  1  0  0  0  0  0  0  0  0  0
    5.2426   -6.1600    0.0000 C   0  0  0  0  0  0  0  0  0  0  0  0
    5.2426   -5.3350    0.0000 C   0  0  2  0  0  0  0  0  0  0  0  0
    4.5281   -4.9225    0.0000 C   0  0  0  0  0  0  0  0  0  0  0  0
    5.9571   -6.5725    0.0000 C   0  0  0  0  0  0  0  0  0  0  0  0
    6.6716   -6.1600    0.0000 C   0  0  0  0  0  0  0  0  0  0  0  0
    6.6716   -5.3350    0.0000 C   0  0  2  0  0  0  0  0  0  0  0  0
    5.9571   -4.9225    0.0000 C   0  0  0  0  0  0  0  0  0  0  0  0
    7.3860   -4.9225    0.0000 C   0  0  1  0  0  0  0  0  0  0  0  0
    7.3860   -4.0975    0.0000 C   0  0  0  0  0  0  0  0  0  0  0  0
    6.6716   -3.6850    0.0000 C   0  0  0  0  0  0  0  0  0  0  0  0
    5.9571   -4.0975    0.0000 C   0  0  0  0  0  0  0  0  0  0  0  0
    8.1005   -5.3350    0.0000 C   0  0  0  0  0  0  0  0  0  0  0  0
    8.8150   -4.9225    0.0000 C   0  0  0  0  0  0  0  0  0  0  0  0
    8.8150   -4.0975    0.0000 C   0  0  2  0  0  0  0  0  0  0  0  0
    8.1005   -3.6850    0.0000 C   0  0  0  0  0  0  0  0  0  0  0  0
    9.5294   -3.6850    0.0000 C   0  0  0  0  0  0  0  0  0  0  0  0
    9.5294   -2.8600    0.0000 C   0  0  0  0  0  0  0  0  0  0  0  0
    8.8150   -2.4475    0.0000 C   0  0  1  0  0  0  0  0  0  0  0  0
    8.1005   -2.8600    0.0000 C   0  0  0  0  0  0  0  0  0  0  0  0
    3.0992   -6.5725    0.0000 O   0  0  0  0  0  0  0  0  0  0  0  0
    4.1156   -7.2870    0.0000 C   0  0  0  0  0  0  0  0  0  0  0  0
    5.2426   -4.5100    0.0000 C   0  0  0  0  0  0  0  0  0  0  0  0
    6.6716   -4.5100    0.0000 C   0  0  0  0  0  0  0  0  0  0  0  0
    8.4025   -1.7330    0.0000 C   0  0  0  0  0  0  0  0  0  0  0  0
    3.0992   -4.9225    0.0000 O   0  0  0  0  0  0  0  0  0  0  0  0
    4.9406   -7.2870    0.0000 C   0  0  0  0  0  0  0  0  0  0  0  0
    7.3860   -5.7475    0.0000 C   0  0  0  0  0  0  0  0  0  0  0  0
    9.2275   -1.7330    0.0000 C   0  0  0  0  0  0  0  0  0  0  0  0
    4.5281   -8.0014    0.0000 O   0  0  0  0  0  0  0  0  0  0  0  0
    5.7656   -7.2870    0.0000 H   0  0  0  0  0  0  0  0  0  0  0  0
   10.6749   -7.6450    0.0000 C   0  0  2  0  0  0  0  0  0  0  0  0
   10.6749   -8.4700    0.0000 C   0  0  2  0  0  0  0  0  0  0  0  0
   11.3894   -8.8825    0.0000 C   0  0  1  0  0  0  0  0  0  0  0  0
   12.1039   -8.4700    0.0000 C   0  0  2  0  0  0  0  0  0  0  0  0
   12.1039   -7.6450    0.0000 C   0  0  1  0  0  0  0  0  0  0  0  0
   11.3894   -7.2325    0.0000 O   0  0  0  0  0  0  0  0  0  0  0  0
   12.8183   -7.2325    0.0000 O   0  0  0  0  0  0  0  0  0  0  0  0
    9.9605   -7.2325    0.0000 C   0  0  0  0  0  0  0  0  0  0  0  0
   11.3894   -9.7075    0.0000 O   0  0  0  0  0  0  0  0  0  0  0  0
    9.9605   -8.8825    0.0000 O   0  0  0  0  0  0  0  0  0  0  0  0
   12.8183   -8.8825    0.0000 O   0  0  0  0  0  0  0  0  0  0  0  0
   12.8183   -6.4075    0.0000 C   0  0  0  0  0  0  0  0  0  0  0  0
   13.5328   -5.9950    0.0000 O   0  0  0  0  0  0  0  0  0  0  0  0
    9.2460   -7.6450    0.0000 O   0  0  0  0  0  0  0  0  0  0  0  0
    8.5315   -8.0575    0.0000 C   0  0  2  0  0  0  0  0  0  0  0  0
    7.8170   -7.6450    0.0000 O   0  0  0  0  0  0  0  0  0  0  0  0
    7.1026   -8.0575    0.0000 C   0  0  1  0  0  0  0  0  0  0  0  0
    7.1026   -8.8825    0.0000 C   0  0  2  0  0  0  0  0  0  0  0  0
    7.8170   -9.2950    0.0000 C   0  0  1  0  0  0  0  0  0  0  0  0
    8.5315   -8.8825    0.0000 C   0  0  1  0  0  0  0  0  0  0  0  0
    6.3881   -7.6450    0.0000 C   0  0  0  0  0  0  0  0  0  0  0  0
    7.8170  -10.1200    0.0000 O   0  0  0  0  0  0  0  0  0  0  0  0
    6.3881   -9.2950    0.0000 O   0  0  0  0  0  0  0  0  0  0  0  0
    9.2460   -9.2950    0.0000 O   0  0  0  0  0  0  0  0  0  0  0  0
    5.6736   -8.0575    0.0000 O   0  0  0  0  0  0  0  0  0  0  0  0
    5.9854  -10.0150    0.0000 C   0  0  2  0  0  0  0  0  0  0  0  0
    5.1605  -10.0263    0.0000 O   0  0  0  0  0  0  0  0  0  0  0  0
    4.7577  -10.7463    0.0000 C   0  0  2  0  0  0  0  0  0  0  0  0
    5.1799  -11.4551    0.0000 C   0  0  1  0  0  0  0  0  0  0  0  0
    6.0048  -11.4438    0.0000 C   0  0  2  0  0  0  0  0  0  0  0  0
    6.4076  -10.7238    0.0000 C   0  0  1  0  0  0  0  0  0  0  0  0
    4.7772  -12.1751    0.0000 O   0  0  0  0  0  0  0  0  0  0  0  0
    7.2325  -10.7126    0.0000 O   0  0  0  0  0  0  0  0  0  0  0  0
    6.4270  -12.1526    0.0000 O   0  0  0  0  0  0  0  0  0  0  0  0
    3.9328  -10.7575    0.0000 C   0  0  0  0  0  0  0  0  0  0  0  0
    6.0243  -12.8726    0.0000 C   0  0  2  0  0  0  0  0  0  0  0  0
    5.1995  -12.8896    0.0000 O   0  0  0  0  0  0  0  0  0  0  0  0
    4.8017  -13.6124    0.0000 C   0  0  0  0  0  0  0  0  0  0  0  0
    5.2288  -14.3182    0.0000 C   0  0  2  0  0  0  0  0  0  0  0  0
    6.0536  -14.3013    0.0000 C   0  0  1  0  0  0  0  0  0  0  0  0
    6.4514  -13.5785    0.0000 C   0  0  1  0  0  0  0  0  0  0  0  0
    6.4807  -15.0071    0.0000 O   0  0  0  0  0  0  0  0  0  0  0  0
    4.8311  -15.0410    0.0000 O   0  0  0  0  0  0  0  0  0  0  0  0
    7.2762  -13.5616    0.0000 O   0  0  0  0  0  0  0  0  0  0  0  0
  1  2  1  0  0  0  0
  2  3  1  0  0  0  0
  3  4  1  0  0  0  0
  4  5  1  0  0  0  0
  5  6  1  0  0  0  0
  6  1  1  0  0  0  0
  4  7  1  0  0  0  0
  7  8  1  0  0  0  0
  8  9  1  0  0  0  0
  9 10  1  0  0  0  0
 10  5  1  0  0  0  0
  9 11  1  0  0  0  0
 11 12  1  0  0  0  0
 12 13  2  0  0  0  0
 13 14  1  0  0  0  0
 14 10  1  0  0  0  0
 11 15  1  0  0  0  0
 15 16  1  0  0  0  0
 16 17  1  0  0  0  0
 17 18  1  0  0  0  0
 18 12  1  0  0  0  0
 17 19  1  0  0  0  0
 19 20  1  0  0  0  0
 20 21  1  0  0  0  0
 21 22  1  0  0  0  0
 22 18  1  0  0  0  0
  2 23  1  1  0  0  0
  3 24  1  1  0  0  0
  5 25  1  1  0  0  0
  9 26  1  1  0  0  0
 21 27  1  1  0  0  0
  1 28  1  6  0  0  0
  3 29  1  6  0  0  0
 11 30  1  6  0  0  0
 21 31  1  6  0  0  0
 29 32  2  0  0  0  0
 29 33  1  0  0  0  0
 34 35  1  0  0  0  0
 35 36  1  0  0  0  0
 36 37  1  0  0  0  0
 37 38  1  0  0  0  0
 38 39  1  0  0  0  0
 39 34  1  0  0  0  0
 38 40  1  1  0  0  0
 34 41  1  1  0  0  0
 36 42  1  1  0  0  0
 35 43  1  6  0  0  0
 37 44  1  6  0  0  0
 40 45  1  0  0  0  0
 45 46  2  0  0  0  0
 41 47  1  0  0  0  0
 48 47  1  1  0  0  0
 48 49  1  0  0  0  0
 49 50  1  0  0  0  0
 50 51  1  0  0  0  0
 51 52  1  0  0  0  0
 52 53  1  0  0  0  0
 53 48  1  0  0  0  0
 50 54  1  1  0  0  0
 52 55  1  1  0  0  0
 51 56  1  6  0  0  0
 53 57  1  6  0  0  0
 54 58  1  0  0  0  0
 59 56  1  1  0  0  0
 59 60  1  0  0  0  0
 60 61  1  0  0  0  0
 61 62  1  0  0  0  0
 62 63  1  0  0  0  0
 63 64  1  0  0  0  0
 64 59  1  0  0  0  0
 62 65  1  1  0  0  0
 64 66  1  6  0  0  0
 63 67  1  6  0  0  0
 61 68  1  6  0  0  0
 69 67  1  1  0  0  0
 69 70  1  0  0  0  0
 70 71  1  0  0  0  0
 71 72  1  0  0  0  0
 72 73  1  0  0  0  0
 73 74  1  0  0  0  0
 74 69  1  0  0  0  0
 73 75  1  1  0  0  0
 72 76  1  6  0  0  0
 74 77  1  6  0  0  0
 17 45  1  1  0  0  0
M  END
>  <cdx:fragmentId>
99

$$$$
