98066.cdx
  Mrv1902 05222410272D          

 13 13  0  0  0  0            999 V2000
    7.8810   -5.8776    0.0000 C   0  0  0  0  0  0  0  0  0  0  0  0
    7.8867   -6.7026    0.0000 C   0  0  0  0  0  0  0  0  0  0  0  0
    7.1751   -7.1201    0.0000 C   0  0  0  0  0  0  0  0  0  0  0  0
    7.1808   -7.9450    0.0000 C   0  0  0  0  0  0  0  0  0  0  0  0
    7.8981   -8.3526    0.0000 C   0  0  0  0  0  0  0  0  0  0  0  0
    7.9038   -9.1776    0.0000 C   0  0  0  0  0  0  0  0  0  0  0  0
    7.1922   -9.5950    0.0000 C   0  0  0  0  0  0  0  0  0  0  0  0
    6.4749   -9.1874    0.0000 C   0  0  0  0  0  0  0  0  0  0  0  0
    6.4692   -8.3625    0.0000 C   0  0  0  0  0  0  0  0  0  0  0  0
    8.5926   -5.4602    0.0000 O   0  0  0  0  0  0  0  0  0  0  0  0
    7.1637   -5.4701    0.0000 O   0  0  0  0  0  0  0  0  0  0  0  0
    8.5869   -4.6352    0.0000 C   0  0  0  0  0  0  0  0  0  0  0  0
    7.1580   -4.6451    0.0000 C   0  0  0  0  0  0  0  0  0  0  0  0
  1  2  1  0  0  0  0
  2  3  2  0  0  0  0
  3  4  1  0  0  0  0
  4  5  1  0  0  0  0
  5  6  2  0  0  0  0
  6  7  1  0  0  0  0
  7  8  2  0  0  0  0
  8  9  1  0  0  0  0
  4  9  2  0  0  0  0
 10 12  1  0  0  0  0
 11 13  1  0  0  0  0
  1 10  1  0  0  0  0
  1 11  1  0  0  0  0
M  END
>  <cdx:fragmentId>
5

$$$$
