98067.cdx
  Mrv1902 05222410272D          

 40 45  0  0  0  0            999 V2000
    5.1749   -6.5175    0.0000 C   0  0  0  0  0  0  0  0  0  0  0  0
    5.1749   -7.3425    0.0000 C   0  0  0  0  0  0  0  0  0  0  0  0
    5.8894   -7.7550    0.0000 C   0  0  0  0  0  0  0  0  0  0  0  0
    6.6039   -7.3425    0.0000 C   0  0  0  0  0  0  0  0  0  0  0  0
    6.6039   -6.5175    0.0000 C   0  0  0  0  0  0  0  0  0  0  0  0
    5.8894   -6.1050    0.0000 C   0  0  0  0  0  0  0  0  0  0  0  0
    7.3183   -7.7550    0.0000 C   0  0  2  0  0  0  0  0  0  0  0  0
    8.0328   -7.3425    0.0000 C   0  0  0  0  0  0  0  0  0  0  0  0
    8.0328   -6.5175    0.0000 C   0  0  0  0  0  0  0  0  0  0  0  0
    7.3183   -6.1050    0.0000 C   0  0  0  0  0  0  0  0  0  0  0  0
    8.7473   -7.7550    0.0000 C   0  0  0  0  0  0  0  0  0  0  0  0
    9.4618   -7.3425    0.0000 C   0  0  0  0  0  0  0  0  0  0  0  0
    9.4618   -6.5175    0.0000 C   0  0  0  0  0  0  0  0  0  0  0  0
    8.7473   -6.1050    0.0000 C   0  0  0  0  0  0  0  0  0  0  0  0
    5.8894   -5.2800    0.0000 O   0  0  0  0  0  0  0  0  0  0  0  0
    7.3183   -5.2800    0.0000 O   0  0  0  0  0  0  0  0  0  0  0  0
    8.7473   -5.2800    0.0000 O   0  0  0  0  0  0  0  0  0  0  0  0
   10.1762   -7.7550    0.0000 C   0  0  0  0  0  0  0  0  0  0  0  0
    4.4605   -7.7550    0.0000 O   0  0  0  0  0  0  0  0  0  0  0  0
    7.3183   -8.5800    0.0000 C   0  0  1  0  0  0  0  0  0  0  0  0
    6.6039   -8.9925    0.0000 C   0  0  0  0  0  0  0  0  0  0  0  0
    6.6039   -9.8175    0.0000 C   0  0  0  0  0  0  0  0  0  0  0  0
    7.3183  -10.2300    0.0000 C   0  0  0  0  0  0  0  0  0  0  0  0
    8.0328   -9.8175    0.0000 C   0  0  0  0  0  0  0  0  0  0  0  0
    8.0328   -8.9925    0.0000 C   0  0  0  0  0  0  0  0  0  0  0  0
    5.8894   -8.5800    0.0000 C   0  0  0  0  0  0  0  0  0  0  0  0
    5.1749   -8.9925    0.0000 C   0  0  0  0  0  0  0  0  0  0  0  0
    5.1749   -9.8175    0.0000 C   0  0  0  0  0  0  0  0  0  0  0  0
    5.8894  -10.2300    0.0000 C   0  0  0  0  0  0  0  0  0  0  0  0
    8.7473  -10.2300    0.0000 C   0  0  0  0  0  0  0  0  0  0  0  0
    9.4618   -9.8175    0.0000 C   0  0  0  0  0  0  0  0  0  0  0  0
    9.4618   -8.9925    0.0000 C   0  0  0  0  0  0  0  0  0  0  0  0
    8.7473   -8.5800    0.0000 C   0  0  0  0  0  0  0  0  0  0  0  0
    4.4605   -8.5800    0.0000 O   0  0  0  0  0  0  0  0  0  0  0  0
    5.8894  -11.0550    0.0000 O   0  0  0  0  0  0  0  0  0  0  0  0
    7.3183  -11.0550    0.0000 O   0  0  0  0  0  0  0  0  0  0  0  0
    8.7473  -11.0550    0.0000 O   0  0  0  0  0  0  0  0  0  0  0  0
   10.1762   -8.5800    0.0000 C   0  0  0  0  0  0  0  0  0  0  0  0
    6.6039   -8.1675    0.0000 H   0  0  0  0  0  0  0  0  0  0  0  0
    8.0328   -8.1675    0.0000 H   0  0  0  0  0  0  0  0  0  0  0  0
  1  2  2  0  0  0  0
  2  3  1  0  0  0  0
  3  4  2  0  0  0  0
  4  5  1  0  0  0  0
  5  6  2  0  0  0  0
  6  1  1  0  0  0  0
  4  7  1  0  0  0  0
  7  8  1  0  0  0  0
  8  9  2  0  0  0  0
  9 10  1  0  0  0  0
 10  5  1  0  0  0  0
  8 11  1  0  0  0  0
 11 12  2  0  0  0  0
 12 13  1  0  0  0  0
 13 14  2  0  0  0  0
 14  9  1  0  0  0  0
  6 15  1  0  0  0  0
 10 16  2  0  0  0  0
 14 17  1  0  0  0  0
 12 18  1  0  0  0  0
  2 19  1  0  0  0  0
  7 20  1  0  0  0  0
 20 21  1  0  0  0  0
 21 22  2  0  0  0  0
 22 23  1  0  0  0  0
 23 24  1  0  0  0  0
 24 25  2  0  0  0  0
 25 20  1  0  0  0  0
 21 26  1  0  0  0  0
 26 27  2  0  0  0  0
 27 28  1  0  0  0  0
 28 29  2  0  0  0  0
 29 22  1  0  0  0  0
 24 30  1  0  0  0  0
 30 31  2  0  0  0  0
 31 32  1  0  0  0  0
 32 33  2  0  0  0  0
 33 25  1  0  0  0  0
 27 34  1  0  0  0  0
 29 35  1  0  0  0  0
 23 36  2  0  0  0  0
 30 37  1  0  0  0  0
 32 38  1  0  0  0  0
  7 39  1  1  0  0  0
 20 40  1  1  0  0  0
M  END
>  <cdx:fragmentId>
5

$$$$
