98073.cdx
  Mrv1902 05222410272D          

 56 61  0  0  0  0            999 V2000
    9.0082   -7.5710    0.0000 O   0  0  0  0  0  0  0  0  0  0  0  0
    6.1503   -8.3960    0.0000 O   0  0  0  0  0  0  0  0  0  0  0  0
    4.7214   -5.9210    0.0000 O   0  0  0  0  0  0  0  0  0  0  0  0
   11.1516   -4.6835    0.0000 O   0  0  0  0  0  0  0  0  0  0  0  0
   11.8661   -5.9210    0.0000 C   0  0  0  0  0  0  0  0  0  0  0  0
   11.1516   -6.3335    0.0000 O   0  0  0  0  0  0  0  0  0  0  0  0
    9.0082   -5.0960    0.0000 C   0  0  0  0  0  0  0  0  0  0  0  0
    9.7227   -4.6835    0.0000 C   0  0  0  0  0  0  0  0  0  0  0  0
   10.4371   -5.0960    0.0000 C   0  0  0  0  0  0  0  0  0  0  0  0
   10.4371   -5.9210    0.0000 C   0  0  0  0  0  0  0  0  0  0  0  0
    9.7227   -6.3335    0.0000 C   0  0  0  0  0  0  0  0  0  0  0  0
    9.0082   -5.9210    0.0000 C   0  0  0  0  0  0  0  0  0  0  0  0
    7.5793   -8.3960    0.0000 O   0  0  0  0  0  0  0  0  0  0  0  0
    7.5793   -5.9210    0.0000 O   0  0  0  0  0  0  0  0  0  0  0  0
    6.8648   -6.3335    0.0000 C   0  0  0  0  0  0  0  0  0  0  0  0
    6.1503   -5.9210    0.0000 C   0  0  0  0  0  0  0  0  0  0  0  0
    5.4359   -6.3335    0.0000 C   0  0  0  0  0  0  0  0  0  0  0  0
    5.4359   -7.1585    0.0000 C   0  0  0  0  0  0  0  0  0  0  0  0
    6.1503   -7.5710    0.0000 C   0  0  0  0  0  0  0  0  0  0  0  0
    6.8648   -7.1585    0.0000 C   0  0  0  0  0  0  0  0  0  0  0  0
    7.5793   -7.5710    0.0000 C   0  0  0  0  0  0  0  0  0  0  0  0
    8.2937   -7.1585    0.0000 C   0  0  0  0  0  0  0  0  0  0  0  0
    8.2937   -6.3335    0.0000 C   0  0  0  0  0  0  0  0  0  0  0  0
    4.0069   -6.3335    0.0000 C   0  0  2  0  0  0  0  0  0  0  0  0
    3.2924   -5.9210    0.0000 O   0  0  0  0  0  0  0  0  0  0  0  0
    2.5780   -6.3335    0.0000 C   0  0  1  0  0  0  0  0  0  0  0  0
    2.5780   -7.1585    0.0000 C   0  0  2  0  0  0  0  0  0  0  0  0
    3.2924   -7.5710    0.0000 C   0  0  1  0  0  0  0  0  0  0  0  0
    4.0069   -7.1585    0.0000 C   0  0  1  0  0  0  0  0  0  0  0  0
    1.8635   -5.9210    0.0000 C   0  0  0  0  0  0  0  0  0  0  0  0
    3.2924   -8.3960    0.0000 O   0  0  0  0  0  0  0  0  0  0  0  0
    1.8635   -7.5710    0.0000 O   0  0  0  0  0  0  0  0  0  0  0  0
    4.7214   -7.5710    0.0000 O   0  0  0  0  0  0  0  0  0  0  0  0
    1.1490   -6.3335    0.0000 O   0  0  0  0  0  0  0  0  0  0  0  0
    9.0307   -8.3926    0.0000 C   0  0  2  0  0  0  0  0  0  0  0  0
    8.3170   -8.8064    0.0000 O   0  0  0  0  0  0  0  0  0  0  0  0
    8.3186   -9.6314    0.0000 C   0  0  1  0  0  0  0  0  0  0  0  0
    9.0339  -10.0426    0.0000 C   0  0  1  0  0  0  0  0  0  0  0  0
    9.7476   -9.6287    0.0000 C   0  0  1  0  0  0  0  0  0  0  0  0
    9.7460   -8.8037    0.0000 C   0  0  1  0  0  0  0  0  0  0  0  0
    7.6049  -10.0453    0.0000 C   0  0  0  0  0  0  0  0  0  0  0  0
   10.4628  -10.0398    0.0000 O   0  0  0  0  0  0  0  0  0  0  0  0
    9.0355  -10.8676    0.0000 O   0  0  0  0  0  0  0  0  0  0  0  0
   10.4597   -8.3898    0.0000 O   0  0  0  0  0  0  0  0  0  0  0  0
    7.6065  -10.8703    0.0000 O   0  0  0  0  0  0  0  0  0  0  0  0
   11.1814   -8.7950    0.0000 C   0  0  2  0  0  0  0  0  0  0  0  0
   11.1833   -9.6200    0.0000 O   0  0  0  0  0  0  0  0  0  0  0  0
   11.8987  -10.0310    0.0000 C   0  0  1  0  0  0  0  0  0  0  0  0
   12.6122   -9.6169    0.0000 C   0  0  2  0  0  0  0  0  0  0  0  0
   12.6104   -8.7919    0.0000 C   0  0  1  0  0  0  0  0  0  0  0  0
   11.8950   -8.3810    0.0000 C   0  0  1  0  0  0  0  0  0  0  0  0
   11.9005  -10.8559    0.0000 C   0  0  0  0  0  0  0  0  0  0  0  0
   13.3239   -8.3778    0.0000 O   0  0  0  0  0  0  0  0  0  0  0  0
   13.3276  -10.0278    0.0000 O   0  0  0  0  0  0  0  0  0  0  0  0
   11.8932   -7.5560    0.0000 O   0  0  0  0  0  0  0  0  0  0  0  0
   12.6159  -11.2669    0.0000 O   0  0  0  0  0  0  0  0  0  0  0  0
 22  1  1  0  0  0  0
 19  2  1  0  0  0  0
 17  3  1  0  0  0  0
 23 12  1  0  0  0  0
  9  4  1  0  0  0  0
 10  6  1  0  0  0  0
  6  5  1  0  0  0  0
 12  7  2  0  0  0  0
  8  7  1  0  0  0  0
  9  8  2  0  0  0  0
 10  9  1  0  0  0  0
 11 10  2  0  0  0  0
 12 11  1  0  0  0  0
 21 13  2  0  0  0  0
 23 14  1  0  0  0  0
 15 14  1  0  0  0  0
 20 15  2  0  0  0  0
 16 15  1  0  0  0  0
 17 16  2  0  0  0  0
 18 17  1  0  0  0  0
 19 18  2  0  0  0  0
 20 19  1  0  0  0  0
 21 20  1  0  0  0  0
 22 21  1  0  0  0  0
 23 22  2  0  0  0  0
 24  3  1  1  0  0  0
 24 25  1  0  0  0  0
 25 26  1  0  0  0  0
 26 27  1  0  0  0  0
 27 28  1  0  0  0  0
 28 29  1  0  0  0  0
 29 24  1  0  0  0  0
 26 30  1  1  0  0  0
 28 31  1  1  0  0  0
 27 32  1  6  0  0  0
 29 33  1  6  0  0  0
 30 34  1  0  0  0  0
 35 36  1  0  0  0  0
 36 37  1  0  0  0  0
 37 38  1  0  0  0  0
 38 39  1  0  0  0  0
 39 40  1  0  0  0  0
 40 35  1  0  0  0  0
 37 41  1  1  0  0  0
 39 42  1  1  0  0  0
 38 43  1  1  0  0  0
 40 44  1  6  0  0  0
 41 45  1  0  0  0  0
 46 47  1  0  0  0  0
 47 48  1  0  0  0  0
 48 49  1  0  0  0  0
 49 50  1  0  0  0  0
 50 51  1  0  0  0  0
 51 46  1  0  0  0  0
 48 52  1  1  0  0  0
 50 53  1  1  0  0  0
 49 54  1  6  0  0  0
 51 55  1  6  0  0  0
 52 56  1  0  0  0  0
 46 44  1  1  0  0  0
 35  1  1  1  0  0  0
M  END
>  <cdx:fragmentId>
5

$$$$
