98076.cdx
  Mrv1902 05222410272D          

 28 30  0  0  0  0            999 V2000
    2.4937   -7.7275    0.0000 C   0  0  0  0  0  0  0  0  0  0  0  0
    2.4937   -8.5525    0.0000 C   0  0  0  0  0  0  0  0  0  0  0  0
    3.2081   -8.9650    0.0000 C   0  0  0  0  0  0  0  0  0  0  0  0
    3.9226   -8.5525    0.0000 C   0  0  0  0  0  0  0  0  0  0  0  0
    3.9226   -7.7275    0.0000 C   0  0  0  0  0  0  0  0  0  0  0  0
    3.2081   -7.3150    0.0000 C   0  0  0  0  0  0  0  0  0  0  0  0
    4.6371   -7.3150    0.0000 C   0  0  0  0  0  0  0  0  0  0  0  0
    5.3516   -7.7275    0.0000 O   0  0  0  0  0  0  0  0  0  0  0  0
    6.7775   -7.7156    0.0000 O   0  0  0  0  0  0  0  0  0  0  0  0
    6.0630   -7.3031    0.0000 C   0  0  2  0  0  0  0  0  0  0  0  0
    6.0630   -6.4781    0.0000 C   0  0  1  0  0  0  0  0  0  0  0  0
    6.7775   -6.0656    0.0000 C   0  0  2  0  0  0  0  0  0  0  0  0
    7.4920   -6.4781    0.0000 C   0  0  1  0  0  0  0  0  0  0  0  0
    7.4920   -7.3031    0.0000 C   0  0  1  0  0  0  0  0  0  0  0  0
    5.3486   -6.0656    0.0000 O   0  0  0  0  0  0  0  0  0  0  0  0
    6.7775   -5.2406    0.0000 O   0  0  0  0  0  0  0  0  0  0  0  0
    8.2064   -6.0656    0.0000 O   0  0  0  0  0  0  0  0  0  0  0  0
    8.2064   -7.7156    0.0000 C   0  0  0  0  0  0  0  0  0  0  0  0
    8.9209   -7.3031    0.0000 O   0  0  0  0  0  0  0  0  0  0  0  0
   10.3891   -7.3801    0.0000 O   0  0  0  0  0  0  0  0  0  0  0  0
    9.6354   -7.7156    0.0000 C   0  0  2  0  0  0  0  0  0  0  0  0
    9.7216   -8.5361    0.0000 C   0  0  1  0  0  0  0  0  0  0  0  0
   10.5286   -8.7076    0.0000 C   0  0  2  0  0  0  0  0  0  0  0  0
   10.9411   -7.9932    0.0000 C   0  0  2  0  0  0  0  0  0  0  0  0
   11.7616   -7.9069    0.0000 C   0  0  0  0  0  0  0  0  0  0  0  0
   12.2465   -8.5744    0.0000 O   0  0  0  0  0  0  0  0  0  0  0  0
   10.8642   -9.4613    0.0000 O   0  0  0  0  0  0  0  0  0  0  0  0
    9.1085   -9.0882    0.0000 O   0  0  0  0  0  0  0  0  0  0  0  0
  1  2  2  0  0  0  0
  2  3  1  0  0  0  0
  3  4  2  0  0  0  0
  4  5  1  0  0  0  0
  5  6  2  0  0  0  0
  6  1  1  0  0  0  0
  5  7  1  0  0  0  0
  7  8  1  0  0  0  0
  9 10  1  0  0  0  0
 10 11  1  0  0  0  0
 11 12  1  0  0  0  0
 12 13  1  0  0  0  0
 13 14  1  0  0  0  0
  9 14  1  0  0  0  0
 11 15  1  6  0  0  0
 12 16  1  1  0  0  0
 13 17  1  6  0  0  0
 20 21  1  0  0  0  0
 21 22  1  0  0  0  0
 22 23  1  0  0  0  0
 23 24  1  0  0  0  0
 20 24  1  0  0  0  0
 25 26  1  0  0  0  0
 24 25  1  1  0  0  0
 23 27  1  6  0  0  0
 22 28  1  1  0  0  0
 21 19  1  6  0  0  0
 18 19  1  0  0  0  0
 14 18  1  1  0  0  0
 10  8  1  1  0  0  0
M  END
>  <cdx:fragmentId>
51

$$$$
