98071.cdx
  Mrv1902 05222410262D          

 33 35  0  0  0  0            999 V2000
    8.8236   -5.4475    0.0000 O   0  0  0  0  0  0  0  0  0  0  0  0
    8.8310   -4.6225    0.0000 C   0  0  0  0  0  0  0  0  0  0  0  0
    5.9658   -5.4218    0.0000 O   0  0  0  0  0  0  0  0  0  0  0  0
    7.4021   -4.6097    0.0000 C   0  0  0  0  0  0  0  0  0  0  0  0
    8.1203   -4.2036    0.0000 C   0  0  0  0  0  0  0  0  0  0  0  0
    6.6914   -4.1908    0.0000 O   0  0  0  0  0  0  0  0  0  0  0  0
    6.6765   -5.8407    0.0000 C   0  0  0  0  0  0  0  0  0  0  0  0
    6.6691   -6.6657    0.0000 C   0  0  0  0  0  0  0  0  0  0  0  0
    7.3798   -7.0846    0.0000 C   0  0  0  0  0  0  0  0  0  0  0  0
    8.0980   -6.6785    0.0000 C   0  0  0  0  0  0  0  0  0  0  0  0
    8.1054   -5.8536    0.0000 C   0  0  0  0  0  0  0  0  0  0  0  0
    7.3947   -5.4346    0.0000 C   0  0  0  0  0  0  0  0  0  0  0  0
    5.2180   -8.3221    0.0000 C   0  0  2  0  0  0  0  0  0  0  0  0
    5.2173   -9.1471    0.0000 C   0  0  2  0  0  0  0  0  0  0  0  0
    5.9314   -9.5603    0.0000 C   0  0  1  0  0  0  0  0  0  0  0  0
    6.6462   -9.1484    0.0000 C   0  0  2  0  0  0  0  0  0  0  0  0
    6.6470   -8.3234    0.0000 C   0  0  1  0  0  0  0  0  0  0  0  0
    5.9329   -7.9103    0.0000 O   0  0  0  0  0  0  0  0  0  0  0  0
    4.5039   -7.9090    0.0000 C   0  0  0  0  0  0  0  0  0  0  0  0
    7.3618   -7.9116    0.0000 O   0  0  0  0  0  0  0  0  0  0  0  0
    5.9306  -10.3853    0.0000 O   0  0  0  0  0  0  0  0  0  0  0  0
    4.5024   -9.5590    0.0000 O   0  0  0  0  0  0  0  0  0  0  0  0
    7.3603   -9.5616    0.0000 O   0  0  0  0  0  0  0  0  0  0  0  0
    3.7891   -8.3208    0.0000 O   0  0  0  0  0  0  0  0  0  0  0  0
    6.7759  -12.7000    0.0000 O   0  0  0  0  0  0  0  0  0  0  0  0
    7.5646  -12.4579    0.0000 C   0  0  0  0  0  0  0  0  0  0  0  0
    8.2233  -12.3291    0.0000 O   0  0  0  0  0  0  0  0  0  0  0  0
    8.8058  -10.6314    0.0000 O   0  0  0  0  0  0  0  0  0  0  0  0
    7.7493  -11.6538    0.0000 C   0  0  2  0  0  0  0  0  0  0  0  0
    8.0171  -10.8735    0.0000 C   0  0  2  0  0  0  0  0  0  0  0  0
    7.3577  -10.3777    0.0000 C   0  0  1  0  0  0  0  0  0  0  0  0
    6.6824  -10.8516    0.0000 O   0  0  0  0  0  0  0  0  0  0  0  0
    6.9245  -11.6403    0.0000 C   0  0  0  0  0  0  0  0  0  0  0  0
 11  1  1  0  0  0  0
  1  2  1  0  0  0  0
  7  3  1  0  0  0  0
  4 12  1  0  0  0  0
 12  7  2  0  0  0  0
  8  7  1  0  0  0  0
  9  8  2  0  0  0  0
 10  9  1  0  0  0  0
 11 10  2  0  0  0  0
 12 11  1  0  0  0  0
  4  5  1  0  0  0  0
  4  6  2  0  0  0  0
 13 14  1  0  0  0  0
 14 15  1  0  0  0  0
 15 16  1  0  0  0  0
 16 17  1  0  0  0  0
 17 18  1  0  0  0  0
 18 13  1  0  0  0  0
 13 19  1  1  0  0  0
 17 20  1  1  0  0  0
 15 21  1  1  0  0  0
 14 22  1  6  0  0  0
 16 23  1  6  0  0  0
 19 24  1  0  0  0  0
 26 25  1  0  0  0  0
 29 26  1  0  0  0  0
 29 27  1  6  0  0  0
 30 28  1  6  0  0  0
 29 33  1  0  0  0  0
 30 29  1  0  0  0  0
 31 30  1  0  0  0  0
 32 31  1  0  0  0  0
 33 32  1  0  0  0  0
 31 23  1  1  0  0  0
  9 20  1  0  0  0  0
M  END
>  <cdx:fragmentId>
39

$$$$
