98078.cdx
  Mrv1902 05222410182D          

 23 25  0  0  0  0            999 V2000
   10.1807   -7.7035    0.0000 O   0  0  0  0  0  0  0  0  0  0  0  0
    8.9995   -8.8556    0.0000 O   0  0  0  0  0  0  0  0  0  0  0  0
   10.1797   -8.8567    0.0000 O   0  0  0  0  0  0  0  0  0  0  0  0
    9.5901   -8.2796    0.0000 S   0  0  0  0  0  0  0  0  0  0  0  0
    9.0193   -7.6854    0.0000 O   0  0  0  0  0  0  0  0  0  0  0  0
    7.2632   -5.1465    0.0000 O   0  0  0  0  0  0  0  0  0  0  0  0
    8.7255   -6.1872    0.0000 C   0  0  0  0  0  0  0  0  0  0  0  0
    7.9434   -6.4499    0.0000 C   0  0  2  0  0  0  0  0  0  0  0  0
    7.2712   -5.9715    0.0000 C   0  0  0  0  0  0  0  0  0  0  0  0
    6.6086   -6.4629    0.0000 O   0  0  0  0  0  0  0  0  0  0  0  0
    7.3095   -9.8731    0.0000 C   0  0  0  0  0  0  0  0  0  0  0  0
    5.1107   -7.1251    0.0000 C   0  0  0  0  0  0  0  0  0  0  0  0
    5.7847   -9.9500    0.0000 O   0  0  0  0  0  0  0  0  0  0  0  0
    5.5408   -7.8292    0.0000 C   0  0  0  0  0  0  0  0  0  0  0  0
    5.2240   -8.5909    0.0000 C   0  0  0  0  0  0  0  0  0  0  0  0
    5.8506   -9.1276    0.0000 C   0  0  0  0  0  0  0  0  0  0  0  0
    7.3014   -9.0482    0.0000 C   0  0  0  0  0  0  0  0  0  0  0  0
    8.0412   -8.6830    0.0000 C   0  0  0  0  0  0  0  0  0  0  0  0
    8.2168   -7.8769    0.0000 C   0  0  1  0  0  0  0  0  0  0  0  0
    7.6962   -7.2369    0.0000 C   0  0  0  0  0  0  0  0  0  0  0  0
    6.8712   -7.2450    0.0000 C   0  0  2  0  0  0  0  0  0  0  0  0
    6.3632   -7.8951    0.0000 C   0  0  0  0  0  0  0  0  0  0  0  0
    6.5546   -8.6975    0.0000 C   0  0  0  0  0  0  0  0  0  0  0  0
  4  5  1  0  0  0  0
  4  1  2  0  0  0  0
  4  2  2  0  0  0  0
  4  3  1  0  0  0  0
 19  5  1  1  0  0  0
  9  6  2  0  0  0  0
  8  7  1  1  0  0  0
  8 20  1  0  0  0  0
  9  8  1  0  0  0  0
 10  9  1  0  0  0  0
 21 10  1  6  0  0  0
 17 11  1  0  0  0  0
 14 12  1  0  0  0  0
 16 13  2  0  0  0  0
 14 22  1  0  0  0  0
 15 14  2  0  0  0  0
 16 15  1  0  0  0  0
 23 16  1  0  0  0  0
 17 23  2  0  0  0  0
 18 17  1  0  0  0  0
 19 18  1  0  0  0  0
 20 19  1  0  0  0  0
 21 20  1  0  0  0  0
 22 21  1  0  0  0  0
 23 22  1  0  0  0  0
M  END
>  <cdx:fragmentId>
5

$$$$
