98074.cdx
  Mrv1902 05222410282D          

 53 58  0  0  0  0            999 V2000
    6.1239   -5.1647    0.0000 C   0  0  0  0  0  0  0  0  0  0  0  0
    6.1239   -5.9897    0.0000 C   0  0  0  0  0  0  0  0  0  0  0  0
    5.4095   -6.4022    0.0000 C   0  0  0  0  0  0  0  0  0  0  0  0
    5.4095   -7.2272    0.0000 O   0  0  0  0  0  0  0  0  0  0  0  0
    4.6950   -5.9897    0.0000 C   0  0  0  0  0  0  0  0  0  0  0  0
    3.9805   -6.4022    0.0000 C   0  0  0  0  0  0  0  0  0  0  0  0
    3.9805   -7.2272    0.0000 O   0  0  0  0  0  0  0  0  0  0  0  0
    3.2661   -5.9897    0.0000 C   0  0  0  0  0  0  0  0  0  0  0  0
    3.2661   -5.1647    0.0000 C   0  0  0  0  0  0  0  0  0  0  0  0
    2.5516   -4.7522    0.0000 O   0  0  0  0  0  0  0  0  0  0  0  0
    3.9805   -4.7522    0.0000 C   0  0  0  0  0  0  0  0  0  0  0  0
    4.6950   -5.1647    0.0000 C   0  0  0  0  0  0  0  0  0  0  0  0
    5.4095   -4.7522    0.0000 O   0  0  0  0  0  0  0  0  0  0  0  0
    6.8384   -4.7522    0.0000 C   0  0  0  0  0  0  0  0  0  0  0  0
    6.8384   -3.9272    0.0000 C   0  0  0  0  0  0  0  0  0  0  0  0
    7.5529   -3.5147    0.0000 C   0  0  0  0  0  0  0  0  0  0  0  0
    8.2674   -3.9272    0.0000 C   0  0  0  0  0  0  0  0  0  0  0  0
    8.9818   -3.5147    0.0000 O   0  0  0  0  0  0  0  0  0  0  0  0
    8.2674   -4.7522    0.0000 C   0  0  0  0  0  0  0  0  0  0  0  0
    7.5529   -5.1647    0.0000 C   0  0  0  0  0  0  0  0  0  0  0  0
    6.8384   -6.4022    0.0000 O   0  0  0  0  0  0  0  0  0  0  0  0
    6.8384   -7.2272    0.0000 C   0  0  1  0  0  0  0  0  0  0  0  0
    7.5529   -7.6397    0.0000 C   0  0  2  0  0  0  0  0  0  0  0  0
    8.2674   -7.2272    0.0000 O   0  0  0  0  0  0  0  0  0  0  0  0
    7.5529   -8.4647    0.0000 C   0  0  1  0  0  0  0  0  0  0  0  0
    8.2674   -8.8772    0.0000 O   0  0  0  0  0  0  0  0  0  0  0  0
    6.8384   -8.8772    0.0000 C   0  0  2  0  0  0  0  0  0  0  0  0
    6.8384   -9.7022    0.0000 O   0  0  0  0  0  0  0  0  0  0  0  0
    6.1239   -8.4647    0.0000 C   0  0  2  0  0  0  0  0  0  0  0  0
    6.1239   -7.6397    0.0000 O   0  0  0  0  0  0  0  0  0  0  0  0
    5.4095   -8.8772    0.0000 C   0  0  0  0  0  0  0  0  0  0  0  0
    4.6950   -8.4647    0.0000 O   0  0  0  0  0  0  0  0  0  0  0  0
    8.9818   -7.6397    0.0000 C   0  0  1  0  0  0  0  0  0  0  0  0
    9.6963   -7.2272    0.0000 C   0  0  2  0  0  0  0  0  0  0  0  0
    9.6963   -6.4022    0.0000 O   0  0  0  0  0  0  0  0  0  0  0  0
   10.4108   -7.6397    0.0000 C   0  0  1  0  0  0  0  0  0  0  0  0
   11.1252   -7.2272    0.0000 O   0  0  0  0  0  0  0  0  0  0  0  0
   10.4108   -8.4647    0.0000 C   0  0  2  0  0  0  0  0  0  0  0  0
   11.1252   -8.8772    0.0000 O   0  0  0  0  0  0  0  0  0  0  0  0
    9.6963   -8.8772    0.0000 C   0  0  2  0  0  0  0  0  0  0  0  0
    8.9818   -8.4647    0.0000 O   0  0  0  0  0  0  0  0  0  0  0  0
    9.6963   -9.7022    0.0000 C   0  0  0  0  0  0  0  0  0  0  0  0
   10.4108  -10.1147    0.0000 O   0  0  0  0  0  0  0  0  0  0  0  0
   10.4108  -10.9397    0.0000 C   0  0  1  0  0  0  0  0  0  0  0  0
   11.1252  -11.3522    0.0000 C   0  0  2  0  0  0  0  0  0  0  0  0
   11.8397  -10.9397    0.0000 O   0  0  0  0  0  0  0  0  0  0  0  0
   11.1252  -12.1772    0.0000 C   0  0  2  0  0  0  0  0  0  0  0  0
   11.8397  -12.5897    0.0000 O   0  0  0  0  0  0  0  0  0  0  0  0
   10.4108  -12.5897    0.0000 C   0  0  1  0  0  0  0  0  0  0  0  0
   10.4108  -13.4147    0.0000 O   0  0  0  0  0  0  0  0  0  0  0  0
    9.6963  -12.1772    0.0000 C   0  0  1  0  0  0  0  0  0  0  0  0
    9.6963  -11.3522    0.0000 O   0  0  0  0  0  0  0  0  0  0  0  0
    8.9818  -12.5897    0.0000 C   0  0  0  0  0  0  0  0  0  0  0  0
  1  2  2  0  0  0  0
  2  3  1  0  0  0  0
  3  4  2  0  0  0  0
  3  5  1  0  0  0  0
  5  6  1  0  0  0  0
  6  7  1  0  0  0  0
  6  8  2  0  0  0  0
  8  9  1  0  0  0  0
  9 10  1  0  0  0  0
  9 11  2  0  0  0  0
 11 12  1  0  0  0  0
  5 12  2  0  0  0  0
 12 13  1  0  0  0  0
  1 13  1  0  0  0  0
  1 14  1  0  0  0  0
 14 15  1  0  0  0  0
 15 16  2  0  0  0  0
 16 17  1  0  0  0  0
 17 18  1  0  0  0  0
 17 19  2  0  0  0  0
 19 20  1  0  0  0  0
 14 20  2  0  0  0  0
 22 21  1  1  0  0  0
 22 23  1  0  0  0  0
 23 24  1  6  0  0  0
 23 25  1  0  0  0  0
 25 26  1  1  0  0  0
 25 27  1  0  0  0  0
 27 28  1  6  0  0  0
 27 29  1  0  0  0  0
 29 30  1  0  0  0  0
 29 31  1  1  0  0  0
 31 32  1  0  0  0  0
 22 30  1  0  0  0  0
 33 34  1  0  0  0  0
 34 35  1  6  0  0  0
 34 36  1  0  0  0  0
 36 37  1  1  0  0  0
 36 38  1  0  0  0  0
 38 39  1  6  0  0  0
 38 40  1  0  0  0  0
 40 41  1  0  0  0  0
 40 42  1  1  0  0  0
 42 43  1  0  0  0  0
 33 41  1  0  0  0  0
 44 45  1  0  0  0  0
 45 46  1  6  0  0  0
 45 47  1  0  0  0  0
 47 48  1  6  0  0  0
 47 49  1  0  0  0  0
 49 50  1  1  0  0  0
 49 51  1  0  0  0  0
 51 52  1  0  0  0  0
 51 53  1  6  0  0  0
 44 52  1  0  0  0  0
 44 43  1  1  0  0  0
 33 24  1  1  0  0  0
  2 21  1  0  0  0  0
M  END
>  <cdx:fragmentId>
69

$$$$
