98072.cdx
  Mrv1902 05222410272D          

 56 62  0  0  0  0            999 V2000
    6.8799   -8.1675    0.0000 C   0  0  2  0  0  0  0  0  0  0  0  0
    6.8799   -8.9925    0.0000 C   0  0  1  0  0  0  0  0  0  0  0  0
    7.5944   -9.4050    0.0000 C   0  0  1  0  0  0  0  0  0  0  0  0
    8.3089   -8.9925    0.0000 C   0  0  0  0  0  0  0  0  0  0  0  0
    8.3089   -8.1675    0.0000 C   0  0  2  0  0  0  0  0  0  0  0  0
    7.5944   -7.7550    0.0000 C   0  0  0  0  0  0  0  0  0  0  0  0
    9.0233   -9.4050    0.0000 C   0  0  0  0  0  0  0  0  0  0  0  0
    9.7378   -8.9925    0.0000 C   0  0  0  0  0  0  0  0  0  0  0  0
    9.7378   -8.1675    0.0000 C   0  0  2  0  0  0  0  0  0  0  0  0
    9.0233   -7.7550    0.0000 C   0  0  0  0  0  0  0  0  0  0  0  0
   10.4523   -7.7550    0.0000 C   0  0  1  0  0  0  0  0  0  0  0  0
   10.4523   -6.9300    0.0000 C   0  0  0  0  0  0  0  0  0  0  0  0
    9.7378   -6.5175    0.0000 C   0  0  0  0  0  0  0  0  0  0  0  0
    9.0233   -6.9300    0.0000 C   0  0  0  0  0  0  0  0  0  0  0  0
   11.1668   -8.1675    0.0000 C   0  0  0  0  0  0  0  0  0  0  0  0
   11.8812   -7.7550    0.0000 C   0  0  0  0  0  0  0  0  0  0  0  0
   11.8812   -6.9300    0.0000 C   0  0  2  0  0  0  0  0  0  0  0  0
   11.1668   -6.5175    0.0000 C   0  0  0  0  0  0  0  0  0  0  0  0
   12.5957   -6.5175    0.0000 C   0  0  0  0  0  0  0  0  0  0  0  0
   12.5957   -5.6925    0.0000 C   0  0  0  0  0  0  0  0  0  0  0  0
   11.8812   -5.2800    0.0000 C   0  0  1  0  0  0  0  0  0  0  0  0
   11.1668   -5.6925    0.0000 C   0  0  0  0  0  0  0  0  0  0  0  0
   11.4687   -4.5655    0.0000 C   0  0  0  0  0  0  0  0  0  0  0  0
   12.5957   -7.3425    0.0000 C   0  0  0  0  0  0  0  0  0  0  0  0
    9.7378   -7.3425    0.0000 C   0  0  0  0  0  0  0  0  0  0  0  0
    8.3089   -7.3425    0.0000 C   0  0  0  0  0  0  0  0  0  0  0  0
    6.1655   -7.7550    0.0000 O   0  0  0  0  0  0  0  0  0  0  0  0
    6.1655   -9.4050    0.0000 O   0  0  0  0  0  0  0  0  0  0  0  0
    7.1819  -10.1195    0.0000 C   0  0  0  0  0  0  0  0  0  0  0  0
    8.0069  -10.1195    0.0000 C   0  0  0  0  0  0  0  0  0  0  0  0
   10.4523   -8.5800    0.0000 C   0  0  0  0  0  0  0  0  0  0  0  0
   12.2937   -4.5655    0.0000 C   0  0  0  0  0  0  0  0  0  0  0  0
    4.7459   -7.7470    0.0000 C   0  0  2  0  0  0  0  0  0  0  0  0
    4.0300   -8.1570    0.0000 C   0  0  2  0  0  0  0  0  0  0  0  0
    4.0272   -8.9820    0.0000 C   0  0  1  0  0  0  0  0  0  0  0  0
    4.7402   -9.3969    0.0000 C   0  0  2  0  0  0  0  0  0  0  0  0
    5.4561   -8.9869    0.0000 C   0  0  1  0  0  0  0  0  0  0  0  0
    5.4590   -8.1619    0.0000 O   0  0  0  0  0  0  0  0  0  0  0  0
    4.7488   -6.9220    0.0000 C   0  0  0  0  0  0  0  0  0  0  0  0
    3.3113   -9.3920    0.0000 O   0  0  0  0  0  0  0  0  0  0  0  0
    3.3170   -7.7420    0.0000 O   0  0  0  0  0  0  0  0  0  0  0  0
    4.7374  -10.2219    0.0000 O   0  0  0  0  0  0  0  0  0  0  0  0
    4.0357   -6.5070    0.0000 O   0  0  0  0  0  0  0  0  0  0  0  0
    5.4647   -6.5119    0.0000 O   0  0  0  0  0  0  0  0  0  0  0  0
    4.0215  -10.6320    0.0000 C   0  0  2  0  0  0  0  0  0  0  0  0
    3.3084  -10.2170    0.0000 O   0  0  0  0  0  0  0  0  0  0  0  0
    2.5925  -10.6270    0.0000 C   0  0  0  0  0  0  0  0  0  0  0  0
    2.5897  -11.4520    0.0000 C   0  0  1  0  0  0  0  0  0  0  0  0
    3.3027  -11.8670    0.0000 C   0  0  1  0  0  0  0  0  0  0  0  0
    4.0186  -11.4570    0.0000 C   0  0  1  0  0  0  0  0  0  0  0  0
    3.2999  -12.6920    0.0000 O   0  0  0  0  0  0  0  0  0  0  0  0
    1.8738  -11.8621    0.0000 O   0  0  0  0  0  0  0  0  0  0  0  0
    4.7317  -11.8719    0.0000 O   0  0  0  0  0  0  0  0  0  0  0  0
   13.3102   -6.9300    0.0000 O   0  0  0  0  0  0  0  0  0  0  0  0
   12.5957   -8.1675    0.0000 O   0  0  0  0  0  0  0  0  0  0  0  0
    8.8319  -10.1195    0.0000 O   0  0  0  0  0  0  0  0  0  0  0  0
  1  2  1  0  0  0  0
  2  3  1  0  0  0  0
  3  4  1  0  0  0  0
  4  5  1  0  0  0  0
  5  6  1  0  0  0  0
  6  1  1  0  0  0  0
  4  7  1  0  0  0  0
  7  8  1  0  0  0  0
  8  9  1  0  0  0  0
  9 10  1  0  0  0  0
 10  5  1  0  0  0  0
  9 11  1  0  0  0  0
 11 12  1  0  0  0  0
 12 13  2  0  0  0  0
 13 14  1  0  0  0  0
 14 10  1  0  0  0  0
 11 15  1  0  0  0  0
 15 16  1  0  0  0  0
 16 17  1  0  0  0  0
 17 18  1  0  0  0  0
 18 12  1  0  0  0  0
 17 19  1  0  0  0  0
 19 20  1  0  0  0  0
 20 21  1  0  0  0  0
 21 22  1  0  0  0  0
 22 18  1  0  0  0  0
 21 23  1  1  0  0  0
 17 24  1  1  0  0  0
  9 25  1  1  0  0  0
  5 26  1  1  0  0  0
  1 27  1  1  0  0  0
  2 28  1  1  0  0  0
  3 29  1  1  0  0  0
  3 30  1  6  0  0  0
 11 31  1  6  0  0  0
 21 32  1  6  0  0  0
 33 34  1  0  0  0  0
 34 35  1  0  0  0  0
 35 36  1  0  0  0  0
 36 37  1  0  0  0  0
 37 38  1  0  0  0  0
 38 33  1  0  0  0  0
 33 39  1  1  0  0  0
 35 40  1  1  0  0  0
 34 41  1  6  0  0  0
 36 42  1  6  0  0  0
 39 43  1  0  0  0  0
 39 44  2  0  0  0  0
 45 42  1  1  0  0  0
 45 46  1  0  0  0  0
 46 47  1  0  0  0  0
 47 48  1  0  0  0  0
 48 49  1  0  0  0  0
 49 50  1  0  0  0  0
 50 45  1  0  0  0  0
 49 51  1  1  0  0  0
 48 52  1  1  0  0  0
 50 53  1  6  0  0  0
 24 54  2  0  0  0  0
 24 55  1  0  0  0  0
 30 56  2  0  0  0  0
 37 28  1  1  0  0  0
M  END
>  <cdx:fragmentId>
5

$$$$
