98079.cdx
  Mrv1902 05222410182D          

 40 44  0  0  0  0            999 V2000
    6.1245   -9.8397    0.0000 O   0  0  0  0  0  0  0  0  0  0  0  0
    4.6955   -7.3647    0.0000 O   0  0  0  0  0  0  0  0  0  0  0  0
   11.1258   -6.1272    0.0000 O   0  0  0  0  0  0  0  0  0  0  0  0
    8.9824   -6.5397    0.0000 C   0  0  0  0  0  0  0  0  0  0  0  0
    9.6968   -6.1272    0.0000 C   0  0  0  0  0  0  0  0  0  0  0  0
   10.4113   -6.5397    0.0000 C   0  0  0  0  0  0  0  0  0  0  0  0
   10.4113   -7.3647    0.0000 C   0  0  0  0  0  0  0  0  0  0  0  0
    9.6968   -7.7772    0.0000 C   0  0  0  0  0  0  0  0  0  0  0  0
    8.9824   -7.3647    0.0000 C   0  0  0  0  0  0  0  0  0  0  0  0
    7.5534   -9.8397    0.0000 O   0  0  0  0  0  0  0  0  0  0  0  0
    7.5534   -7.3647    0.0000 O   0  0  0  0  0  0  0  0  0  0  0  0
    6.8389   -7.7772    0.0000 C   0  0  0  0  0  0  0  0  0  0  0  0
    6.1245   -7.3647    0.0000 C   0  0  0  0  0  0  0  0  0  0  0  0
    5.4100   -7.7772    0.0000 C   0  0  0  0  0  0  0  0  0  0  0  0
    5.4100   -8.6022    0.0000 C   0  0  0  0  0  0  0  0  0  0  0  0
    6.1245   -9.0147    0.0000 C   0  0  0  0  0  0  0  0  0  0  0  0
    6.8389   -8.6022    0.0000 C   0  0  0  0  0  0  0  0  0  0  0  0
    7.5534   -9.0147    0.0000 C   0  0  0  0  0  0  0  0  0  0  0  0
    8.2679   -8.6022    0.0000 C   0  0  0  0  0  0  0  0  0  0  0  0
    8.2679   -7.7772    0.0000 C   0  0  0  0  0  0  0  0  0  0  0  0
    3.2637   -9.0200    0.0000 C   0  0  0  0  0  0  0  0  0  0  0  0
    3.2637   -9.8450    0.0000 C   0  0  2  0  0  0  0  0  0  0  0  0
    3.9781  -10.2575    0.0000 C   0  0  1  0  0  0  0  0  0  0  0  0
    4.6926   -9.8450    0.0000 C   0  0  2  0  0  0  0  0  0  0  0  0
    4.6926   -9.0200    0.0000 C   0  0  1  0  0  0  0  0  0  0  0  0
    3.9781   -8.6075    0.0000 O   0  0  0  0  0  0  0  0  0  0  0  0
    2.5492  -10.2575    0.0000 O   0  0  0  0  0  0  0  0  0  0  0  0
    5.4071  -10.2575    0.0000 O   0  0  0  0  0  0  0  0  0  0  0  0
    3.9781  -11.0825    0.0000 O   0  0  0  0  0  0  0  0  0  0  0  0
    6.8440   -5.2770    0.0000 C   0  0  0  0  0  0  0  0  0  0  0  0
    6.1300   -4.8637    0.0000 C   0  0  2  0  0  0  0  0  0  0  0  0
    5.4151   -5.2753    0.0000 C   0  0  1  0  0  0  0  0  0  0  0  0
    5.4141   -6.1003    0.0000 C   0  0  2  0  0  0  0  0  0  0  0  0
    6.1281   -6.5137    0.0000 C   0  0  1  0  0  0  0  0  0  0  0  0
    6.8430   -6.1020    0.0000 O   0  0  0  0  0  0  0  0  0  0  0  0
    6.1310   -4.0387    0.0000 O   0  0  0  0  0  0  0  0  0  0  0  0
    4.6991   -6.5120    0.0000 O   0  0  0  0  0  0  0  0  0  0  0  0
    4.7011   -4.8620    0.0000 O   0  0  0  0  0  0  0  0  0  0  0  0
    4.6926   -8.1950    0.0000 H   0  0  0  0  0  0  0  0  0  0  0  0
    6.8425   -6.9262    0.0000 H   0  0  0  0  0  0  0  0  0  0  0  0
 16  1  1  0  0  0  0
 14  2  1  0  0  0  0
 20  9  1  0  0  0  0
  6  3  1  0  0  0  0
  9  4  2  0  0  0  0
  5  4  1  0  0  0  0
  6  5  2  0  0  0  0
  7  6  1  0  0  0  0
  8  7  2  0  0  0  0
  9  8  1  0  0  0  0
 18 10  2  0  0  0  0
 20 11  1  0  0  0  0
 12 11  1  0  0  0  0
 17 12  2  0  0  0  0
 13 12  1  0  0  0  0
 14 13  2  0  0  0  0
 15 14  1  0  0  0  0
 16 15  2  0  0  0  0
 17 16  1  0  0  0  0
 18 17  1  0  0  0  0
 19 18  1  0  0  0  0
 20 19  2  0  0  0  0
 21 22  1  0  0  0  0
 22 23  1  0  0  0  0
 23 24  1  0  0  0  0
 24 25  1  0  0  0  0
 25 26  1  0  0  0  0
 26 21  1  0  0  0  0
 22 27  1  6  0  0  0
 24 28  1  6  0  0  0
 23 29  1  1  0  0  0
 30 31  1  0  0  0  0
 31 32  1  0  0  0  0
 32 33  1  0  0  0  0
 33 34  1  0  0  0  0
 34 35  1  0  0  0  0
 35 30  1  0  0  0  0
 31 36  1  6  0  0  0
 33 37  1  6  0  0  0
 32 38  1  1  0  0  0
 13 34  1  0  0  0  0
 15 25  1  0  0  0  0
 25 39  1  6  0  0  0
 34 40  1  6  0  0  0
M  END
>  <cdx:fragmentId>
5

$$$$
