98075.cdx
  Mrv1902 05222410282D          

 26 27  0  0  0  0            999 V2000
    4.5012   -9.3362    0.0000 C   0  0  0  0  0  0  0  0  0  0  0  0
    4.5012  -10.1612    0.0000 C   0  0  0  0  0  0  0  0  0  0  0  0
    5.2156  -10.5737    0.0000 C   0  0  0  0  0  0  0  0  0  0  0  0
    5.9301  -10.1612    0.0000 C   0  0  0  0  0  0  0  0  0  0  0  0
    5.9301   -9.3362    0.0000 C   0  0  0  0  0  0  0  0  0  0  0  0
    5.2156   -8.9238    0.0000 C   0  0  2  0  0  0  0  0  0  0  0  0
    3.7867  -10.5737    0.0000 O   0  0  0  0  0  0  0  0  0  0  0  0
    6.6446  -10.5737    0.0000 C   0  0  0  0  0  0  0  0  0  0  0  0
    6.6446   -8.9237    0.0000 C   0  0  0  0  0  0  0  0  0  0  0  0
    7.3591   -9.3362    0.0000 C   0  0  0  0  0  0  0  0  0  0  0  0
    8.0735   -8.9237    0.0000 C   0  0  1  0  0  0  0  0  0  0  0  0
    8.7880   -9.3362    0.0000 C   0  0  0  0  0  0  0  0  0  0  0  0
    4.8031   -8.2093    0.0000 C   0  0  0  0  0  0  0  0  0  0  0  0
    5.6281   -8.2093    0.0000 C   0  0  0  0  0  0  0  0  0  0  0  0
    8.0735   -8.0987    0.0000 O   0  0  0  0  0  0  0  0  0  0  0  0
   10.2211   -7.6691    0.0000 C   0  0  2  0  0  0  0  0  0  0  0  0
   10.2206   -6.8441    0.0000 C   0  0  2  0  0  0  0  0  0  0  0  0
    9.5060   -6.4320    0.0000 C   0  0  1  0  0  0  0  0  0  0  0  0
    8.7917   -6.8448    0.0000 C   0  0  2  0  0  0  0  0  0  0  0  0
    8.7921   -7.6698    0.0000 C   0  0  1  0  0  0  0  0  0  0  0  0
    9.5068   -8.0820    0.0000 O   0  0  0  0  0  0  0  0  0  0  0  0
   10.9358   -8.0812    0.0000 C   0  0  0  0  0  0  0  0  0  0  0  0
    9.5055   -5.6070    0.0000 O   0  0  0  0  0  0  0  0  0  0  0  0
   10.9349   -6.4312    0.0000 O   0  0  0  0  0  0  0  0  0  0  0  0
    8.0770   -6.4327    0.0000 O   0  0  0  0  0  0  0  0  0  0  0  0
   11.6500   -7.6684    0.0000 O   0  0  0  0  0  0  0  0  0  0  0  0
  1  2  1  0  0  0  0
  2  3  1  0  0  0  0
  3  4  2  0  0  0  0
  4  5  1  0  0  0  0
  5  6  1  0  0  0  0
  6  1  1  0  0  0  0
  2  7  2  0  0  0  0
  4  8  1  0  0  0  0
  5  9  2  0  0  0  0
  9 10  1  0  0  0  0
 10 11  1  0  0  0  0
 11 12  1  0  0  0  0
  6 13  1  1  0  0  0
  6 14  1  6  0  0  0
 11 15  1  6  0  0  0
 16 17  1  0  0  0  0
 17 18  1  0  0  0  0
 18 19  1  0  0  0  0
 19 20  1  0  0  0  0
 20 21  1  0  0  0  0
 21 16  1  0  0  0  0
 16 22  1  1  0  0  0
 18 23  1  1  0  0  0
 17 24  1  6  0  0  0
 19 25  1  6  0  0  0
 22 26  1  0  0  0  0
 20 15  1  1  0  0  0
M  END
>  <cdx:fragmentId>
5

$$$$
