98081.cdx
  Mrv1902 05222410192D          

 43 47  0  0  0  0            999 V2000
    6.4682  -10.0735    0.0000 O   0  0  0  0  0  0  0  0  0  0  0  0
    5.0393   -7.5985    0.0000 O   0  0  0  0  0  0  0  0  0  0  0  0
   11.4695   -6.3610    0.0000 O   0  0  0  0  0  0  0  0  0  0  0  0
    9.3261   -6.7735    0.0000 C   0  0  0  0  0  0  0  0  0  0  0  0
   10.0406   -6.3610    0.0000 C   0  0  0  0  0  0  0  0  0  0  0  0
   10.7550   -6.7735    0.0000 C   0  0  0  0  0  0  0  0  0  0  0  0
   10.7550   -7.5985    0.0000 C   0  0  0  0  0  0  0  0  0  0  0  0
   10.0406   -8.0110    0.0000 C   0  0  0  0  0  0  0  0  0  0  0  0
    9.3261   -7.5985    0.0000 C   0  0  0  0  0  0  0  0  0  0  0  0
    7.8972  -10.0735    0.0000 O   0  0  0  0  0  0  0  0  0  0  0  0
    7.8972   -7.5985    0.0000 O   0  0  0  0  0  0  0  0  0  0  0  0
    7.1827   -8.0110    0.0000 C   0  0  0  0  0  0  0  0  0  0  0  0
    6.4682   -7.5985    0.0000 C   0  0  0  0  0  0  0  0  0  0  0  0
    5.7538   -8.0110    0.0000 C   0  0  0  0  0  0  0  0  0  0  0  0
    5.7538   -8.8360    0.0000 C   0  0  0  0  0  0  0  0  0  0  0  0
    6.4682   -9.2485    0.0000 C   0  0  0  0  0  0  0  0  0  0  0  0
    7.1827   -8.8360    0.0000 C   0  0  0  0  0  0  0  0  0  0  0  0
    7.8972   -9.2485    0.0000 C   0  0  0  0  0  0  0  0  0  0  0  0
    8.6116   -8.8360    0.0000 C   0  0  0  0  0  0  0  0  0  0  0  0
    8.6116   -8.0110    0.0000 C   0  0  0  0  0  0  0  0  0  0  0  0
    3.6074   -9.2538    0.0000 C   0  0  0  0  0  0  0  0  0  0  0  0
    3.6074  -10.0787    0.0000 C   0  0  2  0  0  0  0  0  0  0  0  0
    4.3219  -10.4912    0.0000 C   0  0  1  0  0  0  0  0  0  0  0  0
    5.0364  -10.0787    0.0000 C   0  0  2  0  0  0  0  0  0  0  0  0
    5.0364   -9.2538    0.0000 C   0  0  1  0  0  0  0  0  0  0  0  0
    4.3219   -8.8413    0.0000 O   0  0  0  0  0  0  0  0  0  0  0  0
    2.8930  -10.4912    0.0000 O   0  0  0  0  0  0  0  0  0  0  0  0
    5.7508  -10.4912    0.0000 O   0  0  0  0  0  0  0  0  0  0  0  0
    4.3219  -11.3163    0.0000 O   0  0  0  0  0  0  0  0  0  0  0  0
    7.1878   -5.5108    0.0000 C   0  0  2  0  0  0  0  0  0  0  0  0
    6.4738   -5.0974    0.0000 C   0  0  2  0  0  0  0  0  0  0  0  0
    5.7588   -5.5091    0.0000 C   0  0  1  0  0  0  0  0  0  0  0  0
    5.7578   -6.3341    0.0000 C   0  0  2  0  0  0  0  0  0  0  0  0
    6.4718   -6.7474    0.0000 C   0  0  1  0  0  0  0  0  0  0  0  0
    7.1868   -6.3358    0.0000 O   0  0  0  0  0  0  0  0  0  0  0  0
    6.4748   -4.2724    0.0000 O   0  0  0  0  0  0  0  0  0  0  0  0
    5.0429   -6.7457    0.0000 O   0  0  0  0  0  0  0  0  0  0  0  0
    5.0448   -5.0957    0.0000 O   0  0  0  0  0  0  0  0  0  0  0  0
    7.9027   -5.0991    0.0000 C   0  0  0  0  0  0  0  0  0  0  0  0
    7.9027   -4.2741    0.0000 O   0  0  0  0  0  0  0  0  0  0  0  0
   10.0406   -5.5360    0.0000 O   0  0  0  0  0  0  0  0  0  0  0  0
    7.1863   -7.1599    0.0000 H   0  0  0  0  0  0  0  0  0  0  0  0
    5.0364   -8.4288    0.0000 H   0  0  0  0  0  0  0  0  0  0  0  0
 16  1  1  0  0  0  0
 14  2  1  0  0  0  0
 20  9  1  0  0  0  0
  6  3  1  0  0  0  0
  9  4  2  0  0  0  0
  5  4  1  0  0  0  0
  6  5  2  0  0  0  0
  7  6  1  0  0  0  0
  8  7  2  0  0  0  0
  9  8  1  0  0  0  0
 18 10  2  0  0  0  0
 20 11  1  0  0  0  0
 12 11  1  0  0  0  0
 17 12  2  0  0  0  0
 13 12  1  0  0  0  0
 14 13  2  0  0  0  0
 15 14  1  0  0  0  0
 16 15  2  0  0  0  0
 17 16  1  0  0  0  0
 18 17  1  0  0  0  0
 19 18  1  0  0  0  0
 20 19  2  0  0  0  0
 21 22  1  0  0  0  0
 22 23  1  0  0  0  0
 23 24  1  0  0  0  0
 24 25  1  0  0  0  0
 25 26  1  0  0  0  0
 26 21  1  0  0  0  0
 22 27  1  6  0  0  0
 24 28  1  6  0  0  0
 23 29  1  1  0  0  0
 30 31  1  0  0  0  0
 31 32  1  0  0  0  0
 32 33  1  0  0  0  0
 33 34  1  0  0  0  0
 34 35  1  0  0  0  0
 35 30  1  0  0  0  0
 31 36  1  6  0  0  0
 33 37  1  6  0  0  0
 32 38  1  1  0  0  0
 13 34  1  0  0  0  0
 15 25  1  0  0  0  0
 30 39  1  1  0  0  0
 39 40  1  0  0  0  0
  5 41  1  0  0  0  0
 34 42  1  6  0  0  0
 25 43  1  6  0  0  0
M  END
>  <cdx:fragmentId>
5

$$$$
