98084.cdx
  Mrv1902 05222410192D          

 44 48  0  0  0  0            999 V2000
    9.2576   -6.0035    0.0000 C   0  0  0  0  0  0  0  0  0  0  0  0
    9.2576   -6.8285    0.0000 C   0  0  0  0  0  0  0  0  0  0  0  0
    8.5431   -7.2410    0.0000 C   0  0  0  0  0  0  0  0  0  0  0  0
    8.5431   -8.0660    0.0000 O   0  0  0  0  0  0  0  0  0  0  0  0
    7.8287   -6.8285    0.0000 C   0  0  0  0  0  0  0  0  0  0  0  0
    7.1142   -7.2410    0.0000 C   0  0  0  0  0  0  0  0  0  0  0  0
    7.1142   -8.0660    0.0000 O   0  0  0  0  0  0  0  0  0  0  0  0
    6.3997   -6.8285    0.0000 C   0  0  0  0  0  0  0  0  0  0  0  0
    6.3997   -6.0035    0.0000 C   0  0  0  0  0  0  0  0  0  0  0  0
    5.6853   -5.5910    0.0000 O   0  0  0  0  0  0  0  0  0  0  0  0
    7.1142   -5.5910    0.0000 C   0  0  0  0  0  0  0  0  0  0  0  0
    7.8287   -6.0035    0.0000 C   0  0  0  0  0  0  0  0  0  0  0  0
    8.5431   -5.5910    0.0000 O   0  0  0  0  0  0  0  0  0  0  0  0
    9.9721   -5.5910    0.0000 C   0  0  0  0  0  0  0  0  0  0  0  0
   10.6866   -6.0035    0.0000 C   0  0  0  0  0  0  0  0  0  0  0  0
   11.4010   -5.5910    0.0000 C   0  0  0  0  0  0  0  0  0  0  0  0
   12.1155   -6.0035    0.0000 O   0  0  0  0  0  0  0  0  0  0  0  0
   11.4010   -4.7660    0.0000 C   0  0  0  0  0  0  0  0  0  0  0  0
   12.1155   -4.3535    0.0000 O   0  0  0  0  0  0  0  0  0  0  0  0
   10.6866   -4.3535    0.0000 C   0  0  0  0  0  0  0  0  0  0  0  0
    9.9721   -4.7660    0.0000 C   0  0  0  0  0  0  0  0  0  0  0  0
    9.9721   -7.2410    0.0000 O   0  0  0  0  0  0  0  0  0  0  0  0
    9.9721   -8.0660    0.0000 C   0  0  1  0  0  0  0  0  0  0  0  0
   10.6866   -8.4785    0.0000 C   0  0  2  0  0  0  0  0  0  0  0  0
   11.4010   -8.0660    0.0000 O   0  0  0  0  0  0  0  0  0  0  0  0
   10.6866   -9.3035    0.0000 C   0  0  1  0  0  0  0  0  0  0  0  0
   11.4010   -9.7160    0.0000 O   0  0  0  0  0  0  0  0  0  0  0  0
    9.9721   -9.7160    0.0000 C   0  0  2  0  0  0  0  0  0  0  0  0
    9.9721  -10.5410    0.0000 O   0  0  0  0  0  0  0  0  0  0  0  0
    9.2576   -9.3035    0.0000 C   0  0  2  0  0  0  0  0  0  0  0  0
    9.2576   -8.4785    0.0000 O   0  0  0  0  0  0  0  0  0  0  0  0
    8.5431   -9.7160    0.0000 C   0  0  0  0  0  0  0  0  0  0  0  0
    8.5431  -10.5608    0.0000 O   0  0  0  0  0  0  0  0  0  0  0  0
    4.9692   -6.0035    0.0000 C   0  0  1  0  0  0  0  0  0  0  0  0
    4.9692   -6.8285    0.0000 C   0  0  2  0  0  0  0  0  0  0  0  0
    5.6837   -7.2410    0.0000 O   0  0  0  0  0  0  0  0  0  0  0  0
    4.2547   -7.2410    0.0000 C   0  0  1  0  0  0  0  0  0  0  0  0
    4.2547   -8.0660    0.0000 O   0  0  0  0  0  0  0  0  0  0  0  0
    3.5403   -6.8285    0.0000 C   0  0  1  0  0  0  0  0  0  0  0  0
    2.8258   -7.2410    0.0000 O   0  0  0  0  0  0  0  0  0  0  0  0
    3.5403   -6.0035    0.0000 C   0  0  2  0  0  0  0  0  0  0  0  0
    4.2547   -5.5910    0.0000 O   0  0  0  0  0  0  0  0  0  0  0  0
    2.8258   -5.5910    0.0000 C   0  0  0  0  0  0  0  0  0  0  0  0
    2.1113   -6.0035    0.0000 O   0  0  0  0  0  0  0  0  0  0  0  0
  1  2  2  0  0  0  0
  2  3  1  0  0  0  0
  3  4  2  0  0  0  0
  3  5  1  0  0  0  0
  5  6  1  0  0  0  0
  6  7  1  0  0  0  0
  6  8  2  0  0  0  0
  8  9  1  0  0  0  0
  9 10  1  0  0  0  0
  9 11  2  0  0  0  0
 11 12  1  0  0  0  0
  5 12  2  0  0  0  0
 12 13  1  0  0  0  0
  1 13  1  0  0  0  0
  1 14  1  0  0  0  0
 14 15  1  0  0  0  0
 15 16  2  0  0  0  0
 16 17  1  0  0  0  0
 16 18  1  0  0  0  0
 18 19  1  0  0  0  0
 18 20  2  0  0  0  0
 20 21  1  0  0  0  0
 14 21  2  0  0  0  0
 23 22  1  1  0  0  0
 23 24  1  0  0  0  0
 24 25  1  6  0  0  0
 24 26  1  0  0  0  0
 26 27  1  1  0  0  0
 26 28  1  0  0  0  0
 28 29  1  6  0  0  0
 28 30  1  0  0  0  0
 30 31  1  0  0  0  0
 30 32  1  1  0  0  0
 32 33  1  0  0  0  0
 23 31  1  0  0  0  0
 34 35  1  0  0  0  0
 35 36  1  6  0  0  0
 35 37  1  0  0  0  0
 37 38  1  1  0  0  0
 37 39  1  0  0  0  0
 39 40  1  1  0  0  0
 39 41  1  0  0  0  0
 41 42  1  0  0  0  0
 41 43  1  1  0  0  0
 34 42  1  0  0  0  0
  2 22  1  0  0  0  0
 43 44  1  0  0  0  0
 34 10  1  1  0  0  0
M  END
>  <cdx:fragmentId>
47

$$$$
