98082.cdx
  Mrv1902 05222410202D          

 54 59  0  0  0  0            999 V2000
    8.8864   -5.9760    0.0000 C   0  0  0  0  0  0  0  0  0  0  0  0
    8.8864   -6.8010    0.0000 C   0  0  0  0  0  0  0  0  0  0  0  0
    8.1719   -7.2135    0.0000 C   0  0  0  0  0  0  0  0  0  0  0  0
    8.1719   -8.0385    0.0000 O   0  0  0  0  0  0  0  0  0  0  0  0
    7.4574   -6.8010    0.0000 C   0  0  0  0  0  0  0  0  0  0  0  0
    6.7430   -7.2135    0.0000 C   0  0  0  0  0  0  0  0  0  0  0  0
    6.7430   -8.0385    0.0000 O   0  0  0  0  0  0  0  0  0  0  0  0
    6.0285   -6.8010    0.0000 C   0  0  0  0  0  0  0  0  0  0  0  0
    6.0285   -5.9760    0.0000 C   0  0  0  0  0  0  0  0  0  0  0  0
    5.3140   -5.5635    0.0000 O   0  0  0  0  0  0  0  0  0  0  0  0
    6.7430   -5.5635    0.0000 C   0  0  0  0  0  0  0  0  0  0  0  0
    7.4574   -5.9760    0.0000 C   0  0  0  0  0  0  0  0  0  0  0  0
    8.1719   -5.5635    0.0000 O   0  0  0  0  0  0  0  0  0  0  0  0
    9.6008   -5.5635    0.0000 C   0  0  0  0  0  0  0  0  0  0  0  0
   10.3153   -5.9760    0.0000 C   0  0  0  0  0  0  0  0  0  0  0  0
   11.0298   -5.5635    0.0000 C   0  0  0  0  0  0  0  0  0  0  0  0
   11.7443   -5.9760    0.0000 O   0  0  0  0  0  0  0  0  0  0  0  0
   11.0298   -4.7385    0.0000 C   0  0  0  0  0  0  0  0  0  0  0  0
   11.7443   -4.3260    0.0000 O   0  0  0  0  0  0  0  0  0  0  0  0
   10.3153   -4.3260    0.0000 C   0  0  0  0  0  0  0  0  0  0  0  0
    9.6008   -4.7385    0.0000 C   0  0  0  0  0  0  0  0  0  0  0  0
    9.6008   -7.2135    0.0000 O   0  0  0  0  0  0  0  0  0  0  0  0
    9.6008   -8.0385    0.0000 C   0  0  1  0  0  0  0  0  0  0  0  0
   10.3153   -8.4510    0.0000 C   0  0  2  0  0  0  0  0  0  0  0  0
   11.0298   -8.0385    0.0000 O   0  0  0  0  0  0  0  0  0  0  0  0
   10.3153   -9.2760    0.0000 C   0  0  1  0  0  0  0  0  0  0  0  0
   11.0298   -9.6885    0.0000 O   0  0  0  0  0  0  0  0  0  0  0  0
    9.6008   -9.6885    0.0000 C   0  0  1  0  0  0  0  0  0  0  0  0
    9.6008  -10.5135    0.0000 O   0  0  0  0  0  0  0  0  0  0  0  0
    8.8864   -9.2760    0.0000 C   0  0  2  0  0  0  0  0  0  0  0  0
    8.8864   -8.4510    0.0000 O   0  0  0  0  0  0  0  0  0  0  0  0
    8.1719   -9.6885    0.0000 C   0  0  0  0  0  0  0  0  0  0  0  0
    7.4574   -9.2760    0.0000 O   0  0  0  0  0  0  0  0  0  0  0  0
    6.7430   -9.6885    0.0000 C   0  0  1  0  0  0  0  0  0  0  0  0
    6.7430  -10.5135    0.0000 C   0  0  2  0  0  0  0  0  0  0  0  0
    7.4574  -10.9260    0.0000 O   0  0  0  0  0  0  0  0  0  0  0  0
    6.0285  -10.9260    0.0000 C   0  0  2  0  0  0  0  0  0  0  0  0
    6.0285  -11.7510    0.0000 O   0  0  0  0  0  0  0  0  0  0  0  0
    5.3140  -10.5135    0.0000 C   0  0  1  0  0  0  0  0  0  0  0  0
    4.5995  -10.9260    0.0000 O   0  0  0  0  0  0  0  0  0  0  0  0
    5.3140   -9.6885    0.0000 C   0  0  1  0  0  0  0  0  0  0  0  0
    6.0285   -9.2760    0.0000 O   0  0  0  0  0  0  0  0  0  0  0  0
    4.5995   -9.2760    0.0000 C   0  0  0  0  0  0  0  0  0  0  0  0
    4.5995   -5.9760    0.0000 C   0  0  2  0  0  0  0  0  0  0  0  0
    3.8851   -5.5635    0.0000 O   0  0  0  0  0  0  0  0  0  0  0  0
    3.1706   -5.9760    0.0000 C   0  0  1  0  0  0  0  0  0  0  0  0
    3.1706   -6.8010    0.0000 C   0  0  2  0  0  0  0  0  0  0  0  0
    3.8851   -7.2135    0.0000 C   0  0  1  0  0  0  0  0  0  0  0  0
    4.5995   -6.8010    0.0000 C   0  0  1  0  0  0  0  0  0  0  0  0
    2.4561   -5.5635    0.0000 C   0  0  0  0  0  0  0  0  0  0  0  0
    3.8851   -8.0385    0.0000 O   0  0  0  0  0  0  0  0  0  0  0  0
    2.4561   -7.2135    0.0000 O   0  0  0  0  0  0  0  0  0  0  0  0
    5.3140   -7.2135    0.0000 O   0  0  0  0  0  0  0  0  0  0  0  0
    1.7417   -5.9760    0.0000 O   0  0  0  0  0  0  0  0  0  0  0  0
  1  2  2  0  0  0  0
  2  3  1  0  0  0  0
  3  4  2  0  0  0  0
  3  5  1  0  0  0  0
  5  6  1  0  0  0  0
  6  7  1  0  0  0  0
  6  8  2  0  0  0  0
  8  9  1  0  0  0  0
  9 10  1  0  0  0  0
  9 11  2  0  0  0  0
 11 12  1  0  0  0  0
  5 12  2  0  0  0  0
 12 13  1  0  0  0  0
  1 13  1  0  0  0  0
  1 14  1  0  0  0  0
 14 15  1  0  0  0  0
 15 16  2  0  0  0  0
 16 17  1  0  0  0  0
 16 18  1  0  0  0  0
 18 19  1  0  0  0  0
 18 20  2  0  0  0  0
 20 21  1  0  0  0  0
 14 21  2  0  0  0  0
 23 22  1  1  0  0  0
 23 24  1  0  0  0  0
 24 25  1  6  0  0  0
 24 26  1  0  0  0  0
 26 27  1  1  0  0  0
 26 28  1  0  0  0  0
 28 29  1  1  0  0  0
 28 30  1  0  0  0  0
 30 31  1  0  0  0  0
 30 32  1  1  0  0  0
 32 33  1  0  0  0  0
 23 31  1  0  0  0  0
 34 35  1  0  0  0  0
 35 36  1  6  0  0  0
 35 37  1  0  0  0  0
 37 38  1  6  0  0  0
 37 39  1  0  0  0  0
 39 40  1  1  0  0  0
 39 41  1  0  0  0  0
 41 42  1  0  0  0  0
 41 43  1  6  0  0  0
 34 42  1  0  0  0  0
 34 33  1  1  0  0  0
  2 22  1  0  0  0  0
 44 10  1  1  0  0  0
 44 45  1  0  0  0  0
 45 46  1  0  0  0  0
 46 47  1  0  0  0  0
 47 48  1  0  0  0  0
 48 49  1  0  0  0  0
 49 44  1  0  0  0  0
 46 50  1  1  0  0  0
 48 51  1  1  0  0  0
 47 52  1  6  0  0  0
 49 53  1  6  0  0  0
 50 54  1  0  0  0  0
M  END
>  <cdx:fragmentId>
47

$$$$
