98085.cdx
  Mrv1902 05222410192D          

 42 46  0  0  0  0            999 V2000
    6.5842   -8.4367    0.0000 O   0  0  0  0  0  0  0  0  0  0  0  0
    3.7264   -9.2617    0.0000 O   0  0  0  0  0  0  0  0  0  0  0  0
    2.2974   -6.7867    0.0000 O   0  0  0  0  0  0  0  0  0  0  0  0
    6.5842   -5.9617    0.0000 C   0  0  0  0  0  0  0  0  0  0  0  0
    7.2987   -5.5492    0.0000 C   0  0  0  0  0  0  0  0  0  0  0  0
    8.0132   -5.9617    0.0000 C   0  0  0  0  0  0  0  0  0  0  0  0
    8.0132   -6.7867    0.0000 C   0  0  0  0  0  0  0  0  0  0  0  0
    7.2987   -7.1992    0.0000 C   0  0  0  0  0  0  0  0  0  0  0  0
    6.5842   -6.7867    0.0000 C   0  0  0  0  0  0  0  0  0  0  0  0
    5.1553   -9.2617    0.0000 O   0  0  0  0  0  0  0  0  0  0  0  0
    5.1553   -6.7867    0.0000 O   0  0  0  0  0  0  0  0  0  0  0  0
    4.4408   -7.1992    0.0000 C   0  0  0  0  0  0  0  0  0  0  0  0
    3.7264   -6.7867    0.0000 C   0  0  0  0  0  0  0  0  0  0  0  0
    3.0119   -7.1992    0.0000 C   0  0  0  0  0  0  0  0  0  0  0  0
    3.0119   -8.0242    0.0000 C   0  0  0  0  0  0  0  0  0  0  0  0
    3.7264   -8.4367    0.0000 C   0  0  0  0  0  0  0  0  0  0  0  0
    4.4408   -8.0242    0.0000 C   0  0  0  0  0  0  0  0  0  0  0  0
    5.1553   -8.4367    0.0000 C   0  0  0  0  0  0  0  0  0  0  0  0
    5.8698   -8.0242    0.0000 C   0  0  0  0  0  0  0  0  0  0  0  0
    5.8698   -7.1992    0.0000 C   0  0  0  0  0  0  0  0  0  0  0  0
    6.5842   -9.2617    0.0000 C   0  0  2  0  0  0  0  0  0  0  0  0
    5.8698   -9.6742    0.0000 O   0  0  0  0  0  0  0  0  0  0  0  0
    5.8698  -10.4992    0.0000 C   0  0  1  0  0  0  0  0  0  0  0  0
    6.5842  -10.9117    0.0000 C   0  0  2  0  0  0  0  0  0  0  0  0
    7.2987  -10.4992    0.0000 C   0  0  1  0  0  0  0  0  0  0  0  0
    7.2987   -9.6742    0.0000 C   0  0  1  0  0  0  0  0  0  0  0  0
    5.1553  -10.9117    0.0000 C   0  0  0  0  0  0  0  0  0  0  0  0
    8.0132  -10.9117    0.0000 O   0  0  0  0  0  0  0  0  0  0  0  0
    6.5842  -11.7367    0.0000 O   0  0  0  0  0  0  0  0  0  0  0  0
    8.0132   -9.2617    0.0000 O   0  0  0  0  0  0  0  0  0  0  0  0
    5.1553  -11.7367    0.0000 O   0  0  0  0  0  0  0  0  0  0  0  0
    8.7360  -10.4947    0.0000 O   0  0  0  0  0  0  0  0  0  0  0  0
    8.7324   -9.6697    0.0000 C   0  0  0  0  0  0  0  0  0  0  0  0
    9.4451   -9.2542    0.0000 C   0  0  0  0  0  0  0  0  0  0  0  0
   10.1614   -9.6636    0.0000 C   0  0  0  0  0  0  0  0  0  0  0  0
   13.0121   -8.0014    0.0000 O   0  0  0  0  0  0  0  0  0  0  0  0
   12.3030   -9.2419    0.0000 C   0  0  0  0  0  0  0  0  0  0  0  0
   12.2994   -8.4169    0.0000 C   0  0  0  0  0  0  0  0  0  0  0  0
   11.5832   -8.0075    0.0000 C   0  0  0  0  0  0  0  0  0  0  0  0
   10.8705   -8.4231    0.0000 C   0  0  0  0  0  0  0  0  0  0  0  0
   10.8741   -9.2480    0.0000 C   0  0  0  0  0  0  0  0  0  0  0  0
   11.5903   -9.6575    0.0000 C   0  0  0  0  0  0  0  0  0  0  0  0
 19  1  1  0  0  0  0
 16  2  1  0  0  0  0
 14  3  1  0  0  0  0
 20  9  1  0  0  0  0
  9  4  2  0  0  0  0
  5  4  1  0  0  0  0
  6  5  2  0  0  0  0
  7  6  1  0  0  0  0
  8  7  2  0  0  0  0
  9  8  1  0  0  0  0
 18 10  2  0  0  0  0
 20 11  1  0  0  0  0
 12 11  1  0  0  0  0
 17 12  2  0  0  0  0
 13 12  1  0  0  0  0
 14 13  2  0  0  0  0
 15 14  1  0  0  0  0
 16 15  2  0  0  0  0
 17 16  1  0  0  0  0
 18 17  1  0  0  0  0
 19 18  1  0  0  0  0
 20 19  2  0  0  0  0
 21  1  1  1  0  0  0
 21 22  1  0  0  0  0
 22 23  1  0  0  0  0
 23 24  1  0  0  0  0
 24 25  1  0  0  0  0
 25 26  1  0  0  0  0
 26 21  1  0  0  0  0
 23 27  1  1  0  0  0
 25 28  1  1  0  0  0
 24 29  1  6  0  0  0
 26 30  1  6  0  0  0
 27 31  1  0  0  0  0
 33 32  2  0  0  0  0
 34 33  1  0  0  0  0
 35 34  2  0  0  0  0
 41 35  1  0  0  0  0
 38 36  1  0  0  0  0
 37 42  1  0  0  0  0
 38 37  2  0  0  0  0
 39 38  1  0  0  0  0
 40 39  2  0  0  0  0
 41 40  1  0  0  0  0
 42 41  2  0  0  0  0
 33 30  1  0  0  0  0
M  END
>  <cdx:fragmentId>
5

$$$$
