98080.cdx
  Mrv1902 05222410192D          

 43 47  0  0  0  0            999 V2000
    6.9632  -10.6097    0.0000 O   0  0  0  0  0  0  0  0  0  0  0  0
    5.5343   -8.1347    0.0000 O   0  0  0  0  0  0  0  0  0  0  0  0
   11.9645   -6.8972    0.0000 O   0  0  0  0  0  0  0  0  0  0  0  0
    9.8211   -7.3097    0.0000 C   0  0  0  0  0  0  0  0  0  0  0  0
   10.5356   -6.8972    0.0000 C   0  0  0  0  0  0  0  0  0  0  0  0
   11.2500   -7.3097    0.0000 C   0  0  0  0  0  0  0  0  0  0  0  0
   11.2500   -8.1347    0.0000 C   0  0  0  0  0  0  0  0  0  0  0  0
   10.5356   -8.5472    0.0000 C   0  0  0  0  0  0  0  0  0  0  0  0
    9.8211   -8.1347    0.0000 C   0  0  0  0  0  0  0  0  0  0  0  0
    8.3922  -10.6097    0.0000 O   0  0  0  0  0  0  0  0  0  0  0  0
    8.3922   -8.1347    0.0000 O   0  0  0  0  0  0  0  0  0  0  0  0
    7.6777   -8.5472    0.0000 C   0  0  0  0  0  0  0  0  0  0  0  0
    6.9632   -8.1347    0.0000 C   0  0  0  0  0  0  0  0  0  0  0  0
    6.2488   -8.5472    0.0000 C   0  0  0  0  0  0  0  0  0  0  0  0
    6.2488   -9.3722    0.0000 C   0  0  0  0  0  0  0  0  0  0  0  0
    6.9632   -9.7847    0.0000 C   0  0  0  0  0  0  0  0  0  0  0  0
    7.6777   -9.3722    0.0000 C   0  0  0  0  0  0  0  0  0  0  0  0
    8.3922   -9.7847    0.0000 C   0  0  0  0  0  0  0  0  0  0  0  0
    9.1066   -9.3722    0.0000 C   0  0  0  0  0  0  0  0  0  0  0  0
    9.1066   -8.5472    0.0000 C   0  0  0  0  0  0  0  0  0  0  0  0
    4.1024   -9.7900    0.0000 C   0  0  2  0  0  0  0  0  0  0  0  0
    4.1024  -10.6150    0.0000 C   0  0  2  0  0  0  0  0  0  0  0  0
    4.8169  -11.0275    0.0000 C   0  0  1  0  0  0  0  0  0  0  0  0
    5.5314  -10.6150    0.0000 C   0  0  2  0  0  0  0  0  0  0  0  0
    5.5314   -9.7900    0.0000 C   0  0  1  0  0  0  0  0  0  0  0  0
    4.8169   -9.3775    0.0000 O   0  0  0  0  0  0  0  0  0  0  0  0
    3.3880  -11.0275    0.0000 O   0  0  0  0  0  0  0  0  0  0  0  0
    6.2458  -11.0275    0.0000 O   0  0  0  0  0  0  0  0  0  0  0  0
    4.8169  -11.8525    0.0000 O   0  0  0  0  0  0  0  0  0  0  0  0
    7.6828   -6.0470    0.0000 C   0  0  0  0  0  0  0  0  0  0  0  0
    6.9688   -5.6337    0.0000 C   0  0  2  0  0  0  0  0  0  0  0  0
    6.2538   -6.0453    0.0000 C   0  0  1  0  0  0  0  0  0  0  0  0
    6.2528   -6.8703    0.0000 C   0  0  2  0  0  0  0  0  0  0  0  0
    6.9668   -7.2837    0.0000 C   0  0  1  0  0  0  0  0  0  0  0  0
    7.6818   -6.8720    0.0000 O   0  0  0  0  0  0  0  0  0  0  0  0
    6.9698   -4.8087    0.0000 O   0  0  0  0  0  0  0  0  0  0  0  0
    5.5379   -7.2820    0.0000 O   0  0  0  0  0  0  0  0  0  0  0  0
    5.5398   -5.6320    0.0000 O   0  0  0  0  0  0  0  0  0  0  0  0
   10.5356   -6.0722    0.0000 O   0  0  0  0  0  0  0  0  0  0  0  0
    3.3880   -9.3775    0.0000 C   0  0  0  0  0  0  0  0  0  0  0  0
    2.6735   -9.7900    0.0000 O   0  0  0  0  0  0  0  0  0  0  0  0
    5.5314   -8.9650    0.0000 H   0  0  0  0  0  0  0  0  0  0  0  0
    7.6813   -7.6962    0.0000 H   0  0  0  0  0  0  0  0  0  0  0  0
 16  1  1  0  0  0  0
 14  2  1  0  0  0  0
 20  9  1  0  0  0  0
  6  3  1  0  0  0  0
  9  4  2  0  0  0  0
  5  4  1  0  0  0  0
  6  5  2  0  0  0  0
  7  6  1  0  0  0  0
  8  7  2  0  0  0  0
  9  8  1  0  0  0  0
 18 10  2  0  0  0  0
 20 11  1  0  0  0  0
 12 11  1  0  0  0  0
 17 12  2  0  0  0  0
 13 12  1  0  0  0  0
 14 13  2  0  0  0  0
 15 14  1  0  0  0  0
 16 15  2  0  0  0  0
 17 16  1  0  0  0  0
 18 17  1  0  0  0  0
 19 18  1  0  0  0  0
 20 19  2  0  0  0  0
 21 22  1  0  0  0  0
 22 23  1  0  0  0  0
 23 24  1  0  0  0  0
 24 25  1  0  0  0  0
 25 26  1  0  0  0  0
 26 21  1  0  0  0  0
 22 27  1  6  0  0  0
 24 28  1  6  0  0  0
 23 29  1  1  0  0  0
 30 31  1  0  0  0  0
 31 32  1  0  0  0  0
 32 33  1  0  0  0  0
 33 34  1  0  0  0  0
 34 35  1  0  0  0  0
 35 30  1  0  0  0  0
 31 36  1  6  0  0  0
 33 37  1  6  0  0  0
 32 38  1  1  0  0  0
 13 34  1  0  0  0  0
 15 25  1  0  0  0  0
  5 39  1  0  0  0  0
 21 40  1  1  0  0  0
 40 41  1  0  0  0  0
 25 42  1  6  0  0  0
 34 43  1  6  0  0  0
M  END
>  <cdx:fragmentId>
5

$$$$
