98087.cdx
  Mrv1902 05222410182D          

 42 46  0  0  0  0            999 V2000
    6.5842   -7.7904    0.0000 O   0  0  0  0  0  0  0  0  0  0  0  0
    3.7264   -8.6154    0.0000 O   0  0  0  0  0  0  0  0  0  0  0  0
    2.2974   -6.1404    0.0000 O   0  0  0  0  0  0  0  0  0  0  0  0
    6.5842   -5.3154    0.0000 C   0  0  0  0  0  0  0  0  0  0  0  0
    7.2987   -4.9029    0.0000 C   0  0  0  0  0  0  0  0  0  0  0  0
    8.0132   -5.3154    0.0000 C   0  0  0  0  0  0  0  0  0  0  0  0
    8.0132   -6.1404    0.0000 C   0  0  0  0  0  0  0  0  0  0  0  0
    7.2987   -6.5529    0.0000 C   0  0  0  0  0  0  0  0  0  0  0  0
    6.5842   -6.1404    0.0000 C   0  0  0  0  0  0  0  0  0  0  0  0
    5.1553   -8.6154    0.0000 O   0  0  0  0  0  0  0  0  0  0  0  0
    5.1553   -6.1404    0.0000 O   0  0  0  0  0  0  0  0  0  0  0  0
    4.4408   -6.5529    0.0000 C   0  0  0  0  0  0  0  0  0  0  0  0
    3.7264   -6.1404    0.0000 C   0  0  0  0  0  0  0  0  0  0  0  0
    3.0119   -6.5529    0.0000 C   0  0  0  0  0  0  0  0  0  0  0  0
    3.0119   -7.3779    0.0000 C   0  0  0  0  0  0  0  0  0  0  0  0
    3.7264   -7.7904    0.0000 C   0  0  0  0  0  0  0  0  0  0  0  0
    4.4408   -7.3779    0.0000 C   0  0  0  0  0  0  0  0  0  0  0  0
    5.1553   -7.7904    0.0000 C   0  0  0  0  0  0  0  0  0  0  0  0
    5.8698   -7.3779    0.0000 C   0  0  0  0  0  0  0  0  0  0  0  0
    5.8698   -6.5529    0.0000 C   0  0  0  0  0  0  0  0  0  0  0  0
    6.5842   -8.6154    0.0000 C   0  0  2  0  0  0  0  0  0  0  0  0
    5.8698   -9.0279    0.0000 O   0  0  0  0  0  0  0  0  0  0  0  0
    5.8698   -9.8529    0.0000 C   0  0  1  0  0  0  0  0  0  0  0  0
    6.5842  -10.2654    0.0000 C   0  0  2  0  0  0  0  0  0  0  0  0
    7.2987   -9.8529    0.0000 C   0  0  1  0  0  0  0  0  0  0  0  0
    7.2987   -9.0279    0.0000 C   0  0  1  0  0  0  0  0  0  0  0  0
    5.1553  -10.2654    0.0000 C   0  0  0  0  0  0  0  0  0  0  0  0
    8.0132  -10.2654    0.0000 O   0  0  0  0  0  0  0  0  0  0  0  0
    6.5842  -11.0904    0.0000 O   0  0  0  0  0  0  0  0  0  0  0  0
    8.0132   -8.6154    0.0000 O   0  0  0  0  0  0  0  0  0  0  0  0
    5.1553  -11.0904    0.0000 O   0  0  0  0  0  0  0  0  0  0  0  0
   11.5903   -9.8699    0.0000 C   0  0  0  0  0  0  0  0  0  0  0  0
   10.8741  -10.2793    0.0000 C   0  0  0  0  0  0  0  0  0  0  0  0
   10.8705  -11.1043    0.0000 C   0  0  0  0  0  0  0  0  0  0  0  0
   11.5832  -11.5198    0.0000 C   0  0  0  0  0  0  0  0  0  0  0  0
   12.2994  -11.1104    0.0000 C   0  0  0  0  0  0  0  0  0  0  0  0
   12.3030  -10.2854    0.0000 C   0  0  0  0  0  0  0  0  0  0  0  0
   13.0121  -11.5260    0.0000 O   0  0  0  0  0  0  0  0  0  0  0  0
   10.1614   -9.8637    0.0000 C   0  0  0  0  0  0  0  0  0  0  0  0
    9.4451  -10.2732    0.0000 C   0  0  0  0  0  0  0  0  0  0  0  0
    8.7324   -9.8576    0.0000 C   0  0  0  0  0  0  0  0  0  0  0  0
    8.7360   -9.0326    0.0000 O   0  0  0  0  0  0  0  0  0  0  0  0
 19  1  1  0  0  0  0
 16  2  1  0  0  0  0
 14  3  1  0  0  0  0
 20  9  1  0  0  0  0
  9  4  2  0  0  0  0
  5  4  1  0  0  0  0
  6  5  2  0  0  0  0
  7  6  1  0  0  0  0
  8  7  2  0  0  0  0
  9  8  1  0  0  0  0
 18 10  2  0  0  0  0
 20 11  1  0  0  0  0
 12 11  1  0  0  0  0
 17 12  2  0  0  0  0
 13 12  1  0  0  0  0
 14 13  2  0  0  0  0
 15 14  1  0  0  0  0
 16 15  2  0  0  0  0
 17 16  1  0  0  0  0
 18 17  1  0  0  0  0
 19 18  1  0  0  0  0
 20 19  2  0  0  0  0
 21  1  1  1  0  0  0
 21 22  1  0  0  0  0
 22 23  1  0  0  0  0
 23 24  1  0  0  0  0
 24 25  1  0  0  0  0
 25 26  1  0  0  0  0
 26 21  1  0  0  0  0
 23 27  1  1  0  0  0
 25 28  1  1  0  0  0
 24 29  1  6  0  0  0
 26 30  1  6  0  0  0
 27 31  1  0  0  0  0
 32 33  2  0  0  0  0
 33 34  1  0  0  0  0
 34 35  2  0  0  0  0
 35 36  1  0  0  0  0
 36 37  2  0  0  0  0
 37 32  1  0  0  0  0
 36 38  1  0  0  0  0
 33 39  1  0  0  0  0
 39 40  2  0  0  0  0
 40 41  1  0  0  0  0
 41 42  2  0  0  0  0
 41 28  1  0  0  0  0
M  END
>  <cdx:fragmentId>
5

$$$$
