98088.cdx
  Mrv1902 05222410272D          

 55 59  0  0  0  0            999 V2000
    4.8688   -6.8354    0.0000 C   0  0  0  0  0  0  0  0  0  0  0  0
    4.1544   -7.2479    0.0000 C   0  0  0  0  0  0  0  0  0  0  0  0
    4.8688   -6.0104    0.0000 O   0  0  0  0  0  0  0  0  0  0  0  0
    5.5833   -7.2479    0.0000 O   0  0  0  0  0  0  0  0  0  0  0  0
    7.0122   -5.5979    0.0000 O   0  0  0  0  0  0  0  0  0  0  0  0
    6.2978   -6.0104    0.0000 C   0  0  1  0  0  0  0  0  0  0  0  0
    6.2978   -6.8354    0.0000 C   0  0  2  0  0  0  0  0  0  0  0  0
    7.0122   -7.2479    0.0000 C   0  0  1  0  0  0  0  0  0  0  0  0
    7.7267   -6.8354    0.0000 C   0  0  2  0  0  0  0  0  0  0  0  0
    7.7267   -6.0104    0.0000 C   0  0  2  0  0  0  0  0  0  0  0  0
    5.5833   -5.5979    0.0000 C   0  0  0  0  0  0  0  0  0  0  0  0
    5.5833   -4.7729    0.0000 O   0  0  0  0  0  0  0  0  0  0  0  0
    8.4412   -5.5979    0.0000 O   0  0  0  0  0  0  0  0  0  0  0  0
    9.1556   -6.0104    0.0000 C   0  0  0  0  0  0  0  0  0  0  0  0
    9.8701   -5.5979    0.0000 C   0  0  0  0  0  0  0  0  0  0  0  0
   10.5846   -6.0104    0.0000 C   0  0  0  0  0  0  0  0  0  0  0  0
   11.2991   -5.5979    0.0000 C   0  0  0  0  0  0  0  0  0  0  0  0
   12.0135   -6.0104    0.0000 C   0  0  0  0  0  0  0  0  0  0  0  0
   12.0135   -6.8354    0.0000 C   0  0  0  0  0  0  0  0  0  0  0  0
   11.2991   -7.2479    0.0000 C   0  0  0  0  0  0  0  0  0  0  0  0
   10.5846   -6.8354    0.0000 C   0  0  0  0  0  0  0  0  0  0  0  0
   12.7280   -7.2479    0.0000 O   0  0  0  0  0  0  0  0  0  0  0  0
   13.4425   -6.8354    0.0000 C   0  0  0  0  0  0  0  0  0  0  0  0
   12.7280   -5.5979    0.0000 O   0  0  0  0  0  0  0  0  0  0  0  0
    8.4412   -7.2479    0.0000 O   0  0  0  0  0  0  0  0  0  0  0  0
    7.0122   -8.0729    0.0000 O   0  0  0  0  0  0  0  0  0  0  0  0
    5.5833   -8.0729    0.0000 O   0  0  0  0  0  0  0  0  0  0  0  0
    6.2978   -8.4854    0.0000 C   0  0  2  0  0  0  0  0  0  0  0  0
    6.2978   -9.3104    0.0000 C   0  0  1  0  0  0  0  0  0  0  0  0
    5.5833   -9.7229    0.0000 C   0  0  1  0  0  0  0  0  0  0  0  0
    4.8688   -9.3104    0.0000 C   0  0  2  0  0  0  0  0  0  0  0  0
    4.8688   -8.4854    0.0000 C   0  0  2  0  0  0  0  0  0  0  0  0
    4.1544   -8.0729    0.0000 C   0  0  0  0  0  0  0  0  0  0  0  0
    4.1544   -9.7229    0.0000 O   0  0  0  0  0  0  0  0  0  0  0  0
    5.5833  -10.5479    0.0000 O   0  0  0  0  0  0  0  0  0  0  0  0
    3.4399   -3.5354    0.0000 O   0  0  0  0  0  0  0  0  0  0  0  0
    2.0109   -3.5354    0.0000 C   0  0  0  0  0  0  0  0  0  0  0  0
    2.0109   -4.3604    0.0000 O   0  0  0  0  0  0  0  0  0  0  0  0
    4.1544   -5.5979    0.0000 C   0  0  0  0  0  0  0  0  0  0  0  0
    4.1544   -4.7729    0.0000 C   0  0  0  0  0  0  0  0  0  0  0  0
    3.4399   -4.3604    0.0000 C   0  0  0  0  0  0  0  0  0  0  0  0
    2.7254   -4.7729    0.0000 C   0  0  0  0  0  0  0  0  0  0  0  0
    2.7254   -5.5979    0.0000 C   0  0  0  0  0  0  0  0  0  0  0  0
    3.4399   -6.0104    0.0000 C   0  0  0  0  0  0  0  0  0  0  0  0
    3.4399   -6.8354    0.0000 C   0  0  0  0  0  0  0  0  0  0  0  0
    8.4412  -10.5479    0.0000 O   0  0  0  0  0  0  0  0  0  0  0  0
    8.4412  -12.1979    0.0000 O   0  0  0  0  0  0  0  0  0  0  0  0
    7.0122  -13.0229    0.0000 O   0  0  0  0  0  0  0  0  0  0  0  0
    6.2978  -11.7854    0.0000 C   0  0  0  0  0  0  0  0  0  0  0  0
    7.0122  -12.1979    0.0000 C   0  0  1  0  0  0  0  0  0  0  0  0
    7.7267  -11.7854    0.0000 C   0  0  1  0  0  0  0  0  0  0  0  0
    7.7267  -10.9604    0.0000 C   0  0  2  0  0  0  0  0  0  0  0  0
    7.0122  -10.5479    0.0000 C   0  0  1  0  0  0  0  0  0  0  0  0
    6.2978  -10.9604    0.0000 O   0  0  0  0  0  0  0  0  0  0  0  0
    7.0122   -9.7229    0.0000 O   0  0  0  0  0  0  0  0  0  0  0  0
 45 44  1  0  0  0  0
 41 36  1  0  0  0  0
 42 38  1  0  0  0  0
 38 37  1  0  0  0  0
 44 39  2  0  0  0  0
 40 39  1  0  0  0  0
 41 40  2  0  0  0  0
 42 41  1  0  0  0  0
 43 42  2  0  0  0  0
 44 43  1  0  0  0  0
 53 55  1  1  0  0  0
 52 46  1  6  0  0  0
 51 47  1  1  0  0  0
 50 48  1  1  0  0  0
 54 49  1  0  0  0  0
 50 49  1  0  0  0  0
 51 50  1  0  0  0  0
 52 51  1  0  0  0  0
 53 52  1  0  0  0  0
 54 53  1  0  0  0  0
  1  2  1  0  0  0  0
  2 45  2  0  0  0  0
  1  3  2  0  0  0  0
  1  4  1  0  0  0  0
  5  6  1  0  0  0  0
  6  7  1  0  0  0  0
  7  8  1  0  0  0  0
  8  9  1  0  0  0  0
  9 10  1  0  0  0  0
  5 10  1  0  0  0  0
 11 12  1  0  0  0  0
  6 11  1  1  0  0  0
 14 15  1  0  0  0  0
 13 14  1  0  0  0  0
 16 17  1  0  0  0  0
 17 18  2  0  0  0  0
 18 19  1  0  0  0  0
 19 20  2  0  0  0  0
 20 21  1  0  0  0  0
 16 21  2  0  0  0  0
 22 23  1  0  0  0  0
 19 22  1  0  0  0  0
 18 24  1  0  0  0  0
 15 16  1  0  0  0  0
 10 13  1  1  0  0  0
  9 25  1  6  0  0  0
 27 28  1  0  0  0  0
 28 29  1  0  0  0  0
 29 30  1  0  0  0  0
 30 31  1  0  0  0  0
 31 32  1  0  0  0  0
 27 32  1  0  0  0  0
 29 55  1  6  0  0  0
 32 33  1  6  0  0  0
 31 34  1  1  0  0  0
 30 35  1  6  0  0  0
 28 26  1  1  0  0  0
  8 26  1  1  0  0  0
  7  4  1  6  0  0  0
M  END
>  <cdx:groupId>
1850

>  <cdx:fragmentId>
1734

$$$$
