98097.cdx
  Mrv1902 05222410202D          

 20 22  0  0  0  0            999 V2000
    7.2924   -7.4800    0.0000 C   0  0  1  0  0  0  0  0  0  0  0  0
    7.2924   -8.3050    0.0000 C   0  0  0  0  0  0  0  0  0  0  0  0
    8.0069   -8.7175    0.0000 C   0  0  1  0  0  0  0  0  0  0  0  0
    8.7214   -8.3050    0.0000 C   0  0  1  0  0  0  0  0  0  0  0  0
    8.7214   -7.4800    0.0000 C   0  0  0  0  0  0  0  0  0  0  0  0
    8.0069   -7.0675    0.0000 C   0  0  0  0  0  0  0  0  0  0  0  0
    9.4358   -7.0675    0.0000 O   0  0  0  0  0  0  0  0  0  0  0  0
    8.0069   -9.5425    0.0000 O   0  0  0  0  0  0  0  0  0  0  0  0
    8.7214   -9.9550    0.0000 C   0  0  0  0  0  0  0  0  0  0  0  0
    9.1339   -9.0195    0.0000 O   0  0  0  0  0  0  0  0  0  0  0  0
    9.5464   -8.3050    0.0000 C   0  0  0  0  0  0  0  0  0  0  0  0
    9.9589   -7.5905    0.0000 C   0  0  0  0  0  0  0  0  0  0  0  0
   10.3433   -8.5185    0.0000 C   0  0  0  0  0  0  0  0  0  0  0  0
    6.5780   -7.8925    0.0000 C   0  0  1  0  0  0  0  0  0  0  0  0
    5.8635   -7.4800    0.0000 C   0  0  0  0  0  0  0  0  0  0  0  0
    5.1490   -7.8925    0.0000 C   0  0  0  0  0  0  0  0  0  0  0  0
    4.4345   -7.4800    0.0000 C   0  0  0  0  0  0  0  0  0  0  0  0
    3.7201   -7.8925    0.0000 C   0  0  0  0  0  0  0  0  0  0  0  0
    4.4345   -6.6550    0.0000 O   0  0  0  0  0  0  0  0  0  0  0  0
    6.8799   -6.7655    0.0000 C   0  0  0  0  0  0  0  0  0  0  0  0
  1  2  1  0  0  0  0
  2  3  1  0  0  0  0
  3  4  1  0  0  0  0
  4  5  1  0  0  0  0
  5  6  1  0  0  0  0
  6  1  1  0  0  0  0
  5  7  2  0  0  0  0
  3  8  1  1  0  0  0
  8  9  1  0  0  0  0
  4 10  1  1  0  0  0
 10 11  1  0  0  0  0
  4 11  1  6  0  0  0
 11 12  1  0  0  0  0
 11 13  1  0  0  0  0
  1 14  1  0  0  0  0
 14  2  1  0  0  0  0
 14 15  1  1  0  0  0
 15 16  1  0  0  0  0
 16 17  1  0  0  0  0
 17 18  1  0  0  0  0
 17 19  2  0  0  0  0
  1 20  1  1  0  0  0
M  END
>  <cdx:fragmentId>
5

$$$$
