98099.cdx
  Mrv1902 05222410262D          

 19 20  0  0  0  0            999 V2000
    6.8662   -7.2600    0.0000 C   0  0  1  0  0  0  0  0  0  0  0  0
    6.8662   -8.0850    0.0000 C   0  0  1  0  0  0  0  0  0  0  0  0
    7.5806   -8.4975    0.0000 O   0  0  0  0  0  0  0  0  0  0  0  0
    8.2951   -8.0850    0.0000 C   0  0  0  0  0  0  0  0  0  0  0  0
    8.2951   -7.2600    0.0000 C   0  0  0  0  0  0  0  0  0  0  0  0
    7.5806   -6.8475    0.0000 C   0  0  0  0  0  0  0  0  0  0  0  0
    6.0816   -7.0051    0.0000 C   0  0  0  0  0  0  0  0  0  0  0  0
    5.5966   -7.6725    0.0000 C   0  0  0  0  0  0  0  0  0  0  0  0
    6.0816   -8.3399    0.0000 C   0  0  1  0  0  0  0  0  0  0  0  0
    7.5806   -6.0225    0.0000 C   0  0  0  0  0  0  0  0  0  0  0  0
    9.0096   -8.4975    0.0000 O   0  0  0  0  0  0  0  0  0  0  0  0
    6.7799   -8.9055    0.0000 C   0  0  0  0  0  0  0  0  0  0  0  0
    7.4474   -9.3904    0.0000 C   0  0  0  0  0  0  0  0  0  0  0  0
    7.3611  -10.2109    0.0000 C   0  0  0  0  0  0  0  0  0  0  0  0
    8.2011   -9.0548    0.0000 O   0  0  0  0  0  0  0  0  0  0  0  0
    8.0286  -10.6958    0.0000 C   0  0  0  0  0  0  0  0  0  0  0  0
    6.6075  -10.5464    0.0000 C   0  0  0  0  0  0  0  0  0  0  0  0
    5.8266   -9.1246    0.0000 C   0  0  0  0  0  0  0  0  0  0  0  0
    6.7799   -6.4395    0.0000 H   0  0  0  0  0  0  0  0  0  0  0  0
  1  2  1  0  0  0  0
  2  3  1  0  0  0  0
  3  4  1  0  0  0  0
  4  5  1  0  0  0  0
  5  6  2  0  0  0  0
  6  1  1  0  0  0  0
  1  7  1  0  0  0  0
  7  8  1  0  0  0  0
  8  9  1  0  0  0  0
  9  2  1  0  0  0  0
  6 10  1  0  0  0  0
  4 11  2  0  0  0  0
  2 12  1  6  0  0  0
 12 13  1  0  0  0  0
 13 14  1  0  0  0  0
 13 15  2  0  0  0  0
 14 16  1  0  0  0  0
 14 17  1  0  0  0  0
  9 18  1  6  0  0  0
  1 19  1  1  0  0  0
M  END
>  <cdx:fragmentId>
5

$$$$
