98094.cdx
  Mrv1902 05222410192D          

 42 46  0  0  0  0            999 V2000
    5.7807  -10.6510    0.0000 O   0  0  0  0  0  0  0  0  0  0  0  0
    4.3518   -8.1760    0.0000 O   0  0  0  0  0  0  0  0  0  0  0  0
   10.7820   -6.9385    0.0000 O   0  0  0  0  0  0  0  0  0  0  0  0
    8.6386   -7.3510    0.0000 C   0  0  0  0  0  0  0  0  0  0  0  0
    9.3531   -6.9385    0.0000 C   0  0  0  0  0  0  0  0  0  0  0  0
   10.0675   -7.3510    0.0000 C   0  0  0  0  0  0  0  0  0  0  0  0
   10.0675   -8.1760    0.0000 C   0  0  0  0  0  0  0  0  0  0  0  0
    9.3531   -8.5885    0.0000 C   0  0  0  0  0  0  0  0  0  0  0  0
    8.6386   -8.1760    0.0000 C   0  0  0  0  0  0  0  0  0  0  0  0
    7.2097  -10.6510    0.0000 O   0  0  0  0  0  0  0  0  0  0  0  0
    7.2097   -8.1760    0.0000 O   0  0  0  0  0  0  0  0  0  0  0  0
    6.4952   -8.5885    0.0000 C   0  0  0  0  0  0  0  0  0  0  0  0
    5.7807   -8.1760    0.0000 C   0  0  0  0  0  0  0  0  0  0  0  0
    5.0663   -8.5885    0.0000 C   0  0  0  0  0  0  0  0  0  0  0  0
    5.0663   -9.4135    0.0000 C   0  0  0  0  0  0  0  0  0  0  0  0
    5.7807   -9.8260    0.0000 C   0  0  0  0  0  0  0  0  0  0  0  0
    6.4952   -9.4135    0.0000 C   0  0  0  0  0  0  0  0  0  0  0  0
    7.2097   -9.8260    0.0000 C   0  0  0  0  0  0  0  0  0  0  0  0
    7.9241   -9.4135    0.0000 C   0  0  0  0  0  0  0  0  0  0  0  0
    7.9241   -8.5885    0.0000 C   0  0  0  0  0  0  0  0  0  0  0  0
    3.6373   -8.5885    0.0000 C   0  0  2  0  0  0  0  0  0  0  0  0
    2.9228   -8.1760    0.0000 O   0  0  0  0  0  0  0  0  0  0  0  0
    2.2084   -8.5885    0.0000 C   0  0  1  0  0  0  0  0  0  0  0  0
    2.2084   -9.4135    0.0000 C   0  0  2  0  0  0  0  0  0  0  0  0
    2.9228   -9.8260    0.0000 C   0  0  1  0  0  0  0  0  0  0  0  0
    3.6373   -9.4135    0.0000 C   0  0  1  0  0  0  0  0  0  0  0  0
    1.4939   -8.1760    0.0000 C   0  0  0  0  0  0  0  0  0  0  0  0
    2.9228  -10.6510    0.0000 O   0  0  0  0  0  0  0  0  0  0  0  0
    1.4939   -9.8260    0.0000 O   0  0  0  0  0  0  0  0  0  0  0  0
    4.3518   -9.8260    0.0000 O   0  0  0  0  0  0  0  0  0  0  0  0
    0.7794   -8.5885    0.0000 O   0  0  0  0  0  0  0  0  0  0  0  0
   11.4828   -7.3426    0.0000 C   0  0  2  0  0  0  0  0  0  0  0  0
   11.4776   -8.1675    0.0000 O   0  0  0  0  0  0  0  0  0  0  0  0
   12.1895   -8.5845    0.0000 C   0  0  1  0  0  0  0  0  0  0  0  0
   12.9065   -8.1765    0.0000 C   0  0  2  0  0  0  0  0  0  0  0  0
   12.9117   -7.3515    0.0000 C   0  0  1  0  0  0  0  0  0  0  0  0
   12.1998   -6.9345    0.0000 C   0  0  1  0  0  0  0  0  0  0  0  0
   12.1843   -9.4095    0.0000 C   0  0  0  0  0  0  0  0  0  0  0  0
   13.6287   -6.9435    0.0000 O   0  0  0  0  0  0  0  0  0  0  0  0
   13.6184   -8.5934    0.0000 O   0  0  0  0  0  0  0  0  0  0  0  0
   12.2050   -6.1096    0.0000 O   0  0  0  0  0  0  0  0  0  0  0  0
   12.8962   -9.8264    0.0000 O   0  0  0  0  0  0  0  0  0  0  0  0
 16  1  1  0  0  0  0
 14  2  1  0  0  0  0
 20  9  1  0  0  0  0
  6  3  1  0  0  0  0
  9  4  2  0  0  0  0
  5  4  1  0  0  0  0
  6  5  2  0  0  0  0
  7  6  1  0  0  0  0
  8  7  2  0  0  0  0
  9  8  1  0  0  0  0
 18 10  2  0  0  0  0
 20 11  1  0  0  0  0
 12 11  1  0  0  0  0
 17 12  2  0  0  0  0
 13 12  1  0  0  0  0
 14 13  2  0  0  0  0
 15 14  1  0  0  0  0
 16 15  2  0  0  0  0
 17 16  1  0  0  0  0
 18 17  1  0  0  0  0
 19 18  1  0  0  0  0
 20 19  2  0  0  0  0
 21  2  1  1  0  0  0
 21 22  1  0  0  0  0
 22 23  1  0  0  0  0
 23 24  1  0  0  0  0
 24 25  1  0  0  0  0
 25 26  1  0  0  0  0
 26 21  1  0  0  0  0
 23 27  1  1  0  0  0
 25 28  1  1  0  0  0
 24 29  1  6  0  0  0
 26 30  1  6  0  0  0
 27 31  1  0  0  0  0
 32 33  1  0  0  0  0
 33 34  1  0  0  0  0
 34 35  1  0  0  0  0
 35 36  1  0  0  0  0
 36 37  1  0  0  0  0
 37 32  1  0  0  0  0
 34 38  1  1  0  0  0
 36 39  1  1  0  0  0
 35 40  1  6  0  0  0
 37 41  1  6  0  0  0
 38 42  1  0  0  0  0
 32  3  1  1  0  0  0
M  END
>  <cdx:fragmentId>
5

$$$$
