98096.cdx
  Mrv1902 05222410202D          

 20 22  0  0  0  0            999 V2000
    6.3299   -5.6512    0.0000 C   0  0  1  0  0  0  0  0  0  0  0  0
    6.3299   -6.4763    0.0000 C   0  0  0  0  0  0  0  0  0  0  0  0
    7.0444   -6.8888    0.0000 C   0  0  1  0  0  0  0  0  0  0  0  0
    7.7589   -6.4763    0.0000 C   0  0  2  0  0  0  0  0  0  0  0  0
    7.7589   -5.6512    0.0000 C   0  0  0  0  0  0  0  0  0  0  0  0
    7.0444   -5.2387    0.0000 C   0  0  0  0  0  0  0  0  0  0  0  0
    8.4733   -5.2387    0.0000 O   0  0  0  0  0  0  0  0  0  0  0  0
    7.0444   -7.7138    0.0000 O   0  0  0  0  0  0  0  0  0  0  0  0
    7.7589   -8.1263    0.0000 C   0  0  0  0  0  0  0  0  0  0  0  0
    8.1714   -7.1907    0.0000 O   0  0  0  0  0  0  0  0  0  0  0  0
    8.5839   -6.4763    0.0000 C   0  0  0  0  0  0  0  0  0  0  0  0
    8.9964   -5.7618    0.0000 C   0  0  0  0  0  0  0  0  0  0  0  0
    9.3808   -6.6898    0.0000 C   0  0  0  0  0  0  0  0  0  0  0  0
    5.6155   -6.0638    0.0000 C   0  0  1  0  0  0  0  0  0  0  0  0
    4.9010   -5.6512    0.0000 C   0  0  0  0  0  0  0  0  0  0  0  0
    4.1865   -6.0638    0.0000 C   0  0  0  0  0  0  0  0  0  0  0  0
    3.4720   -5.6512    0.0000 C   0  0  0  0  0  0  0  0  0  0  0  0
    2.7576   -6.0638    0.0000 C   0  0  0  0  0  0  0  0  0  0  0  0
    3.4720   -4.8263    0.0000 O   0  0  0  0  0  0  0  0  0  0  0  0
    5.9174   -4.9368    0.0000 C   0  0  0  0  0  0  0  0  0  0  0  0
  1  2  1  0  0  0  0
  2  3  1  0  0  0  0
  3  4  1  0  0  0  0
  4  5  1  0  0  0  0
  5  6  1  0  0  0  0
  6  1  1  0  0  0  0
  5  7  2  0  0  0  0
  3  8  1  1  0  0  0
  8  9  1  0  0  0  0
  4 10  1  6  0  0  0
 10 11  1  0  0  0  0
  4 11  1  1  0  0  0
 11 12  1  0  0  0  0
 11 13  1  0  0  0  0
  1 14  1  0  0  0  0
 14  2  1  0  0  0  0
 14 15  1  1  0  0  0
 15 16  1  0  0  0  0
 16 17  1  0  0  0  0
 17 18  1  0  0  0  0
 17 19  2  0  0  0  0
  1 20  1  1  0  0  0
M  END
>  <cdx:fragmentId>
5

$$$$
