98095.cdx
  Mrv1902 05222410192D          

 32 35  0  0  0  0            999 V2000
    5.7807  -10.6510    0.0000 O   0  0  0  0  0  0  0  0  0  0  0  0
    4.3518   -8.1760    0.0000 O   0  0  0  0  0  0  0  0  0  0  0  0
   10.7820   -6.9385    0.0000 O   0  0  0  0  0  0  0  0  0  0  0  0
    8.6386   -7.3510    0.0000 C   0  0  0  0  0  0  0  0  0  0  0  0
    9.3531   -6.9385    0.0000 C   0  0  0  0  0  0  0  0  0  0  0  0
   10.0675   -7.3510    0.0000 C   0  0  0  0  0  0  0  0  0  0  0  0
   10.0675   -8.1760    0.0000 C   0  0  0  0  0  0  0  0  0  0  0  0
    9.3531   -8.5885    0.0000 C   0  0  0  0  0  0  0  0  0  0  0  0
    8.6386   -8.1760    0.0000 C   0  0  0  0  0  0  0  0  0  0  0  0
    7.2097  -10.6510    0.0000 O   0  0  0  0  0  0  0  0  0  0  0  0
    7.2097   -8.1760    0.0000 O   0  0  0  0  0  0  0  0  0  0  0  0
    6.4952   -8.5885    0.0000 C   0  0  0  0  0  0  0  0  0  0  0  0
    5.7807   -8.1760    0.0000 C   0  0  0  0  0  0  0  0  0  0  0  0
    5.0663   -8.5885    0.0000 C   0  0  0  0  0  0  0  0  0  0  0  0
    5.0663   -9.4135    0.0000 C   0  0  0  0  0  0  0  0  0  0  0  0
    5.7807   -9.8260    0.0000 C   0  0  0  0  0  0  0  0  0  0  0  0
    6.4952   -9.4135    0.0000 C   0  0  0  0  0  0  0  0  0  0  0  0
    7.2097   -9.8260    0.0000 C   0  0  0  0  0  0  0  0  0  0  0  0
    7.9241   -9.4135    0.0000 C   0  0  0  0  0  0  0  0  0  0  0  0
    7.9241   -8.5885    0.0000 C   0  0  0  0  0  0  0  0  0  0  0  0
    5.7807   -7.3510    0.0000 C   0  0  1  0  0  0  0  0  0  0  0  0
    6.4952   -6.9385    0.0000 O   0  0  0  0  0  0  0  0  0  0  0  0
    6.4952   -6.1135    0.0000 C   0  0  1  0  0  0  0  0  0  0  0  0
    5.7807   -5.7010    0.0000 C   0  0  2  0  0  0  0  0  0  0  0  0
    5.0663   -6.1135    0.0000 C   0  0  1  0  0  0  0  0  0  0  0  0
    5.0663   -6.9385    0.0000 C   0  0  1  0  0  0  0  0  0  0  0  0
    4.3518   -5.7010    0.0000 O   0  0  0  0  0  0  0  0  0  0  0  0
    7.2097   -5.7010    0.0000 C   0  0  0  0  0  0  0  0  0  0  0  0
    7.2097   -4.8760    0.0000 O   0  0  0  0  0  0  0  0  0  0  0  0
    4.3518   -7.3510    0.0000 O   0  0  0  0  0  0  0  0  0  0  0  0
    5.7807   -4.8760    0.0000 O   0  0  0  0  0  0  0  0  0  0  0  0
    6.4952   -7.7635    0.0000 H   0  0  0  0  0  0  0  0  0  0  0  0
 16  1  1  0  0  0  0
 14  2  1  0  0  0  0
 20  9  1  0  0  0  0
  6  3  1  0  0  0  0
  9  4  2  0  0  0  0
  5  4  1  0  0  0  0
  6  5  2  0  0  0  0
  7  6  1  0  0  0  0
  8  7  2  0  0  0  0
  9  8  1  0  0  0  0
 18 10  2  0  0  0  0
 20 11  1  0  0  0  0
 12 11  1  0  0  0  0
 17 12  2  0  0  0  0
 13 12  1  0  0  0  0
 14 13  2  0  0  0  0
 15 14  1  0  0  0  0
 16 15  2  0  0  0  0
 17 16  1  0  0  0  0
 18 17  1  0  0  0  0
 19 18  1  0  0  0  0
 20 19  2  0  0  0  0
 13 21  1  0  0  0  0
 21 22  1  0  0  0  0
 22 23  1  0  0  0  0
 23 24  1  0  0  0  0
 24 25  1  0  0  0  0
 25 26  1  0  0  0  0
 26 21  1  0  0  0  0
 25 27  1  1  0  0  0
 23 28  1  1  0  0  0
 28 29  1  0  0  0  0
 26 30  1  6  0  0  0
 24 31  1  6  0  0  0
 21 32  1  1  0  0  0
M  END
>  <cdx:fragmentId>
5

$$$$
