98098.cdx
  Mrv1902 05222410272D          

 20 23  0  0  0  0            999 V2000
    6.4628   -7.7413    0.0000 C   0  0  2  0  0  0  0  0  0  0  0  0
    6.4628   -8.5663    0.0000 C   0  0  2  0  0  0  0  0  0  0  0  0
    7.1078   -9.0806    0.0000 C   0  0  0  0  0  0  0  0  0  0  0  0
    7.9122   -8.8970    0.0000 C   0  0  0  0  0  0  0  0  0  0  0  0
    8.2701   -8.1538    0.0000 C   0  0  1  0  0  0  0  0  0  0  0  0
    7.9122   -7.4105    0.0000 C   0  0  1  0  0  0  0  0  0  0  0  0
    7.1078   -7.2269    0.0000 C   0  0  2  0  0  0  0  0  0  0  0  0
    7.6690   -6.6221    0.0000 O   0  0  0  0  0  0  0  0  0  0  0  0
    5.6782   -7.4863    0.0000 C   0  0  0  0  0  0  0  0  0  0  0  0
    5.1933   -8.1538    0.0000 C   0  0  0  0  0  0  0  0  0  0  0  0
    5.6782   -8.8212    0.0000 C   0  0  2  0  0  0  0  0  0  0  0  0
    8.4265   -9.5421    0.0000 C   0  0  0  0  0  0  0  0  0  0  0  0
    8.1251  -10.3100    0.0000 C   0  0  0  0  0  0  0  0  0  0  0  0
    9.2423   -9.4191    0.0000 C   0  0  0  0  0  0  0  0  0  0  0  0
    5.4233   -9.6058    0.0000 C   0  0  0  0  0  0  0  0  0  0  0  0
    7.1773   -8.1538    0.0000 O   0  0  0  0  0  0  0  0  0  0  0  0
    9.0951   -8.1538    0.0000 O   0  0  0  0  0  0  0  0  0  0  0  0
    8.6801   -7.1090    0.0000 H   0  0  0  0  0  0  0  0  0  0  0  0
    6.5467   -6.6221    0.0000 C   0  0  0  0  0  0  0  0  0  0  0  0
    5.8795   -7.1579    0.0000 H   0  0  0  0  0  0  0  0  0  0  0  0
  1  2  1  0  0  0  0
  2  3  1  0  0  0  0
  3  4  1  0  0  0  0
  4  5  1  0  0  0  0
  5  6  1  0  0  0  0
  6  7  1  0  0  0  0
  7  1  1  0  0  0  0
  6  8  1  1  0  0  0
  7  8  1  1  0  0  0
  1  9  1  0  0  0  0
  9 10  1  0  0  0  0
 10 11  1  0  0  0  0
 11  2  1  0  0  0  0
  4 12  2  0  0  0  0
 12 13  1  0  0  0  0
 12 14  1  0  0  0  0
 11 15  1  1  0  0  0
  2 16  1  1  0  0  0
  5 16  1  1  0  0  0
  5 17  1  0  0  0  0
  6 18  1  6  0  0  0
  7 19  1  6  0  0  0
  1 20  1  6  0  0  0
M  END
>  <cdx:fragmentId>
5

$$$$
