98100.cdx
  Mrv1902 05222410282D          

 44 48  0  0  0  0            999 V2000
    4.9824   -7.2738    0.0000 C   0  0  0  0  0  0  0  0  0  0  0  0
    4.9824   -8.0987    0.0000 C   0  0  0  0  0  0  0  0  0  0  0  0
    5.6969   -8.5113    0.0000 C   0  0  0  0  0  0  0  0  0  0  0  0
    6.4114   -8.0987    0.0000 C   0  0  0  0  0  0  0  0  0  0  0  0
    6.4114   -7.2738    0.0000 C   0  0  0  0  0  0  0  0  0  0  0  0
    5.6969   -6.8613    0.0000 C   0  0  0  0  0  0  0  0  0  0  0  0
    7.1258   -8.5113    0.0000 C   0  0  0  0  0  0  0  0  0  0  0  0
    7.8403   -8.0987    0.0000 C   0  0  0  0  0  0  0  0  0  0  0  0
    7.8403   -7.2738    0.0000 C   0  0  0  0  0  0  0  0  0  0  0  0
    7.1258   -6.8613    0.0000 O   0  0  0  0  0  0  0  0  0  0  0  0
    8.5548   -8.5113    0.0000 O   0  0  0  0  0  0  0  0  0  0  0  0
    9.2693   -7.2738    0.0000 C   0  0  0  0  0  0  0  0  0  0  0  0
    8.5548   -6.8613    0.0000 C   0  0  0  0  0  0  0  0  0  0  0  0
    9.9837   -6.8613    0.0000 C   0  0  0  0  0  0  0  0  0  0  0  0
    9.9837   -6.0362    0.0000 C   0  0  0  0  0  0  0  0  0  0  0  0
    9.2693   -5.6238    0.0000 C   0  0  0  0  0  0  0  0  0  0  0  0
    8.5548   -6.0362    0.0000 C   0  0  0  0  0  0  0  0  0  0  0  0
   10.6982   -5.6238    0.0000 O   0  0  0  0  0  0  0  0  0  0  0  0
    7.1258   -9.3362    0.0000 O   0  0  0  0  0  0  0  0  0  0  0  0
    5.6969   -9.3362    0.0000 O   0  0  0  0  0  0  0  0  0  0  0  0
    4.2680   -8.5113    0.0000 O   0  0  0  0  0  0  0  0  0  0  0  0
    4.2680   -6.8613    0.0000 O   0  0  0  0  0  0  0  0  0  0  0  0
    4.2680   -9.3362    0.0000 C   0  0  0  0  0  0  0  0  0  0  0  0
    9.9708   -9.3310    0.0000 O   0  0  0  0  0  0  0  0  0  0  0  0
    9.9708  -10.9810    0.0000 O   0  0  0  0  0  0  0  0  0  0  0  0
    8.5418  -11.8060    0.0000 O   0  0  0  0  0  0  0  0  0  0  0  0
    6.3984  -12.2185    0.0000 O   0  0  0  0  0  0  0  0  0  0  0  0
    4.9695  -13.0435    0.0000 O   0  0  0  0  0  0  0  0  0  0  0  0
    3.5405  -12.2185    0.0000 O   0  0  0  0  0  0  0  0  0  0  0  0
    3.5405  -10.5685    0.0000 C   0  0  0  0  0  0  0  0  0  0  0  0
    4.2550  -10.9810    0.0000 C   0  0  1  0  0  0  0  0  0  0  0  0
    4.2550  -11.8060    0.0000 C   0  0  1  0  0  0  0  0  0  0  0  0
    4.9695  -12.2185    0.0000 C   0  0  2  0  0  0  0  0  0  0  0  0
    5.6839  -11.8060    0.0000 C   0  0  2  0  0  0  0  0  0  0  0  0
    5.6839  -10.9810    0.0000 C   0  0  1  0  0  0  0  0  0  0  0  0
    4.9695  -10.5685    0.0000 O   0  0  0  0  0  0  0  0  0  0  0  0
    6.3984  -10.5685    0.0000 O   0  0  0  0  0  0  0  0  0  0  0  0
    7.1129  -10.9810    0.0000 C   0  0  0  0  0  0  0  0  0  0  0  0
    7.8274  -10.5685    0.0000 C   0  0  2  0  0  0  0  0  0  0  0  0
    8.5418  -10.9810    0.0000 C   0  0  2  0  0  0  0  0  0  0  0  0
    9.2563  -10.5685    0.0000 C   0  0  1  0  0  0  0  0  0  0  0  0
    9.2563   -9.7435    0.0000 C   0  0  2  0  0  0  0  0  0  0  0  0
    8.5418   -9.3310    0.0000 C   0  0  1  0  0  0  0  0  0  0  0  0
    7.8274   -9.7435    0.0000 O   0  0  0  0  0  0  0  0  0  0  0  0
  1  2  2  0  0  0  0
  2  3  1  0  0  0  0
  3  4  2  0  0  0  0
  4  5  1  0  0  0  0
  5  6  2  0  0  0  0
  6  1  1  0  0  0  0
  4  7  1  0  0  0  0
  7  8  1  0  0  0  0
  8  9  2  0  0  0  0
  9 10  1  0  0  0  0
 10  5  1  0  0  0  0
  8 11  1  0  0  0  0
 12 13  2  0  0  0  0
 13  9  1  0  0  0  0
 12 14  1  0  0  0  0
 14 15  2  0  0  0  0
 15 16  1  0  0  0  0
 16 17  2  0  0  0  0
 17 13  1  0  0  0  0
 15 18  1  0  0  0  0
  7 19  2  0  0  0  0
  3 20  1  0  0  0  0
  2 21  1  0  0  0  0
  1 22  1  0  0  0  0
 21 23  1  0  0  0  0
 42 24  1  6  0  0  0
 41 25  1  1  0  0  0
 40 26  1  6  0  0  0
 39 38  1  1  0  0  0
 38 37  1  0  0  0  0
 35 37  1  1  0  0  0
 34 27  1  6  0  0  0
 33 28  1  6  0  0  0
 32 29  1  1  0  0  0
 31 30  1  6  0  0  0
 36 31  1  0  0  0  0
 32 31  1  0  0  0  0
 33 32  1  0  0  0  0
 34 33  1  0  0  0  0
 35 34  1  0  0  0  0
 36 35  1  0  0  0  0
 44 39  1  0  0  0  0
 40 39  1  0  0  0  0
 41 40  1  0  0  0  0
 42 41  1  0  0  0  0
 43 42  1  0  0  0  0
 44 43  1  0  0  0  0
 43 11  1  1  0  0  0
M  END
>  <cdx:fragmentId>
5

$$$$
