98104.cdx
  Mrv1902 05222410262D          

 58 61  0  0  0  0            999 V2000
   12.3376  -10.1638    0.0000 C   0  0  2  0  0  0  0  0  0  0  0  0
   11.6231  -10.5763    0.0000 C   0  0  0  0  0  0  0  0  0  0  0  0
   10.9087  -10.1638    0.0000 C   0  0  0  0  0  0  0  0  0  0  0  0
   13.7666  -11.8138    0.0000 O   0  0  0  0  0  0  0  0  0  0  0  0
   15.1231   -4.3141    0.0000 C   0  0  0  0  0  0  0  0  0  0  0  0
   14.4038   -3.9101    0.0000 C   0  0  0  0  0  0  0  0  0  0  0  0
   13.6942   -4.3310    0.0000 C   0  0  0  0  0  0  0  0  0  0  0  0
   12.9750   -3.9270    0.0000 C   0  0  0  0  0  0  0  0  0  0  0  0
   12.9652   -3.1020    0.0000 C   0  0  0  0  0  0  0  0  0  0  0  0
   13.6748   -2.6811    0.0000 C   0  0  0  0  0  0  0  0  0  0  0  0
   14.3940   -3.0851    0.0000 C   0  0  0  0  0  0  0  0  0  0  0  0
   12.2459   -2.6980    0.0000 O   0  0  0  0  0  0  0  0  0  0  0  0
   10.9087   -9.3388    0.0000 O   0  0  0  0  0  0  0  0  0  0  0  0
   12.3376  -10.9888    0.0000 C   0  0  0  0  0  0  0  0  0  0  0  0
   10.1942  -10.5763    0.0000 O   0  0  0  0  0  0  0  0  0  0  0  0
    9.4797  -10.1638    0.0000 C   0  0  0  0  0  0  0  0  0  0  0  0
    8.7653  -10.5763    0.0000 C   0  0  0  0  0  0  0  0  0  0  0  0
    8.0508  -10.1638    0.0000 C   0  0  0  0  0  0  0  0  0  0  0  0
    7.3363  -10.5763    0.0000 C   0  0  0  0  0  0  0  0  0  0  0  0
    7.3363  -11.4013    0.0000 C   0  0  0  0  0  0  0  0  0  0  0  0
    6.6219  -11.8138    0.0000 C   0  0  0  0  0  0  0  0  0  0  0  0
    5.9074  -11.4013    0.0000 C   0  0  0  0  0  0  0  0  0  0  0  0
    5.9074  -10.5763    0.0000 C   0  0  0  0  0  0  0  0  0  0  0  0
    6.6219  -10.1638    0.0000 C   0  0  0  0  0  0  0  0  0  0  0  0
    5.1929  -11.8138    0.0000 O   0  0  0  0  0  0  0  0  0  0  0  0
    4.4784  -11.4013    0.0000 C   0  0  1  0  0  0  0  0  0  0  0  0
    3.7640  -11.8138    0.0000 C   0  0  1  0  0  0  0  0  0  0  0  0
    3.0495  -11.4013    0.0000 C   0  0  2  0  0  0  0  0  0  0  0  0
    3.0495  -10.5763    0.0000 C   0  0  1  0  0  0  0  0  0  0  0  0
    3.7640  -10.1638    0.0000 C   0  0  2  0  0  0  0  0  0  0  0  0
    4.4784  -10.5763    0.0000 O   0  0  0  0  0  0  0  0  0  0  0  0
    3.7640   -9.3388    0.0000 C   0  0  0  0  0  0  0  0  0  0  0  0
    3.0495   -8.9263    0.0000 O   0  0  0  0  0  0  0  0  0  0  0  0
    2.3350  -10.1638    0.0000 O   0  0  0  0  0  0  0  0  0  0  0  0
    2.3350  -11.8138    0.0000 O   0  0  0  0  0  0  0  0  0  0  0  0
    3.7640  -12.6388    0.0000 O   0  0  0  0  0  0  0  0  0  0  0  0
    5.1929  -10.1638    0.0000 O   0  0  0  0  0  0  0  0  0  0  0  0
    5.1929   -9.3388    0.0000 C   0  0  0  0  0  0  0  0  0  0  0  0
    6.6219  -12.6388    0.0000 O   0  0  0  0  0  0  0  0  0  0  0  0
    5.9074  -13.0513    0.0000 C   0  0  0  0  0  0  0  0  0  0  0  0
   12.3376  -11.8138    0.0000 O   0  0  0  0  0  0  0  0  0  0  0  0
   13.0521  -10.5763    0.0000 C   0  0  0  0  0  0  0  0  0  0  0  0
   13.0521  -11.4013    0.0000 C   0  0  0  0  0  0  0  0  0  0  0  0
   13.7625  -10.1056    0.0000 O   0  0  0  0  0  0  0  0  0  0  0  0
   15.1816   -9.2638    0.0000 O   0  0  0  0  0  0  0  0  0  0  0  0
   15.1621   -7.6139    0.0000 O   0  0  0  0  0  0  0  0  0  0  0  0
   13.7040   -5.1559    0.0000 O   0  0  0  0  0  0  0  0  0  0  0  0
   15.1328   -5.1391    0.0000 C   0  0  0  0  0  0  0  0  0  0  0  0
   14.4233   -5.5600    0.0000 C   0  0  0  0  0  0  0  0  0  0  0  0
   14.4330   -6.3849    0.0000 O   0  0  0  0  0  0  0  0  0  0  0  0
   13.7235   -6.8058    0.0000 C   0  0  0  0  0  0  0  0  0  0  0  0
   13.0237   -8.0517    0.0000 O   0  0  0  0  0  0  0  0  0  0  0  0
   13.7332   -7.6308    0.0000 C   0  0  2  0  0  0  0  0  0  0  0  0
   14.4525   -8.0348    0.0000 C   0  0  1  0  0  0  0  0  0  0  0  0
   14.4623   -8.8597    0.0000 C   0  0  2  0  0  0  0  0  0  0  0  0
   13.7527   -9.2806    0.0000 C   0  0  1  0  0  0  0  0  0  0  0  0
   13.0334   -8.8766    0.0000 C   0  0  1  0  0  0  0  0  0  0  0  0
   12.3239   -9.2975    0.0000 O   0  0  0  0  0  0  0  0  0  0  0  0
 43  4  1  0  0  0  0
 43 41  2  0  0  0  0
 43 42  1  0  0  0  0
 57 58  1  1  0  0  0
 56 44  1  6  0  0  0
 55 45  1  1  0  0  0
 54 46  1  6  0  0  0
 53 51  1  1  0  0  0
 51 50  1  0  0  0  0
 50 49  1  0  0  0  0
 49 47  2  0  0  0  0
 48  5  2  0  0  0  0
 49 48  1  0  0  0  0
 57 52  1  0  0  0  0
 53 52  1  0  0  0  0
 54 53  1  0  0  0  0
 55 54  1  0  0  0  0
 56 55  1  0  0  0  0
 42  1  1  0  0  0  0
  1  2  1  0  0  0  0
  2  3  1  0  0  0  0
 57 56  1  0  0  0  0
  6  7  1  0  0  0  0
  7  8  2  0  0  0  0
  8  9  1  0  0  0  0
  9 10  2  0  0  0  0
 10 11  1  0  0  0  0
  6 11  2  0  0  0  0
  9 12  1  0  0  0  0
  5  6  1  0  0  0  0
  1 58  1  0  0  0  0
  3 13  2  0  0  0  0
  1 14  1  6  0  0  0
 16 17  1  0  0  0  0
 17 18  2  0  0  0  0
 19 20  1  0  0  0  0
 20 21  2  0  0  0  0
 21 22  1  0  0  0  0
 22 23  2  0  0  0  0
 23 24  1  0  0  0  0
 19 24  2  0  0  0  0
 26 27  1  0  0  0  0
 27 28  1  0  0  0  0
 28 29  1  0  0  0  0
 29 30  1  0  0  0  0
 30 31  1  0  0  0  0
 26 31  1  0  0  0  0
 32 33  1  0  0  0  0
 30 32  1  1  0  0  0
 29 34  1  6  0  0  0
 28 35  1  1  0  0  0
 27 36  1  6  0  0  0
 26 25  1  1  0  0  0
 22 25  1  0  0  0  0
 37 38  1  0  0  0  0
 23 37  1  0  0  0  0
 39 40  1  0  0  0  0
 21 39  1  0  0  0  0
 18 19  1  0  0  0  0
 15 16  1  0  0  0  0
  3 15  1  0  0  0  0
M  END
>  <cdx:fragmentId>
45

$$$$
