98108.cdx
  Mrv1902 05222410202D          

 40 40  0  0  0  0            999 V2000
    6.5591  -12.3323    0.0000 C   0  0  0  0  0  0  0  0  0  0  0  0
    6.6602  -11.5135    0.0000 C   0  0  0  0  0  0  0  0  0  0  0  0
    6.0017  -11.0166    0.0000 C   0  0  2  0  0  0  0  0  0  0  0  0
    5.2420  -11.3384    0.0000 C   0  0  0  0  0  0  0  0  0  0  0  0
    9.8523  -11.2726    0.0000 C   0  0  0  0  0  0  0  0  0  0  0  0
    8.4287  -11.3962    0.0000 C   0  0  0  0  0  0  0  0  0  0  0  0
    9.1048  -10.9235    0.0000 C   0  0  0  0  0  0  0  0  0  0  0  0
    9.0335  -10.1015    0.0000 C   0  0  0  0  0  0  0  0  0  0  0  0
   10.4669   -6.5185    0.0000 C   0  0  0  0  0  0  0  0  0  0  0  0
   10.1445   -7.9106    0.0000 C   0  0  0  0  0  0  0  0  0  0  0  0
    9.9038   -7.1215    0.0000 C   0  0  0  0  0  0  0  0  0  0  0  0
    9.1001   -6.9354    0.0000 C   0  0  0  0  0  0  0  0  0  0  0  0
    6.1354   -4.4649    0.0000 C   0  0  0  0  0  0  0  0  0  0  0  0
    7.3597   -5.2017    0.0000 C   0  0  0  0  0  0  0  0  0  0  0  0
    6.5349   -5.1867    0.0000 C   0  0  0  0  0  0  0  0  0  0  0  0
    6.1095   -5.8936    0.0000 C   0  0  0  0  0  0  0  0  0  0  0  0
    2.8367   -7.9072    0.0000 C   0  0  0  0  0  0  0  0  0  0  0  0
    3.9633   -7.0282    0.0000 C   0  0  0  0  0  0  0  0  0  0  0  0
    3.6537   -7.7929    0.0000 C   0  0  0  0  0  0  0  0  0  0  0  0
    4.1946   -8.4159    0.0000 C   0  0  0  0  0  0  0  0  0  0  0  0
    4.7328   -6.8562    0.0000 O   0  0  0  0  0  0  0  0  0  0  0  0
    7.7592   -5.9235    0.0000 O   0  0  0  0  0  0  0  0  0  0  0  0
    9.5814   -8.5136    0.0000 O   0  0  0  0  0  0  0  0  0  0  0  0
    7.6812  -11.0470    0.0000 O   0  0  0  0  0  0  0  0  0  0  0  0
    4.6846  -10.0227    0.0000 O   0  0  0  0  0  0  0  0  0  0  0  0
    5.0045   -8.2590    0.0000 C   0  0  1  0  0  0  0  0  0  0  0  0
    5.2736   -7.4792    0.0000 C   0  0  0  0  0  0  0  0  0  0  0  0
    6.0836   -7.3223    0.0000 N   0  0  0  0  0  0  0  0  0  0  0  0
    6.5090   -6.6154    0.0000 C   0  0  2  0  0  0  0  0  0  0  0  0
    7.3338   -6.6304    0.0000 C   0  0  0  0  0  0  0  0  0  0  0  0
    7.7333   -7.3522    0.0000 N   0  0  0  0  0  0  0  0  0  0  0  0
    8.5370   -7.5384    0.0000 C   0  0  2  0  0  0  0  0  0  0  0  0
    8.7777   -8.3275    0.0000 C   0  0  0  0  0  0  0  0  0  0  0  0
    8.2146   -8.9305    0.0000 N   0  0  0  0  0  0  0  0  0  0  0  0
    8.2860   -9.7524    0.0000 C   0  0  2  0  0  0  0  0  0  0  0  0
    7.6099  -10.2251    0.0000 C   0  0  0  0  0  0  0  0  0  0  0  0
    6.8624   -9.8759    0.0000 N   0  0  0  0  0  0  0  0  0  0  0  0
    6.1028  -10.1978    0.0000 C   0  0  2  0  0  0  0  0  0  0  0  0
    5.4442   -9.7008    0.0000 C   0  0  0  0  0  0  0  0  0  0  0  0
    5.5453   -8.8821    0.0000 N   0  0  0  0  0  0  0  0  0  0  0  0
 38  3  1  0  0  0  0
  2  1  1  0  0  0  0
  3  2  1  0  0  0  0
  3  4  1  6  0  0  0
 35  8  1  1  0  0  0
  7  5  1  0  0  0  0
  7  6  1  0  0  0  0
  8  7  1  0  0  0  0
 32 12  1  1  0  0  0
 11  9  1  0  0  0  0
 11 10  1  0  0  0  0
 12 11  1  0  0  0  0
 29 16  1  1  0  0  0
 15 13  1  0  0  0  0
 15 14  1  0  0  0  0
 16 15  1  0  0  0  0
 26 20  1  1  0  0  0
 19 17  1  0  0  0  0
 19 18  1  0  0  0  0
 20 19  1  0  0  0  0
 27 21  2  0  0  0  0
 30 22  2  0  0  0  0
 33 23  2  0  0  0  0
 36 24  2  0  0  0  0
 39 25  2  0  0  0  0
 40 26  1  0  0  0  0
 27 26  1  0  0  0  0
 28 27  1  0  0  0  0
 29 28  1  0  0  0  0
 30 29  1  0  0  0  0
 31 30  1  0  0  0  0
 32 31  1  0  0  0  0
 33 32  1  0  0  0  0
 34 33  1  0  0  0  0
 35 34  1  0  0  0  0
 36 35  1  0  0  0  0
 37 36  1  0  0  0  0
 38 37  1  1  0  0  0
 39 38  1  0  0  0  0
 40 39  1  0  0  0  0
M  END
>  <cdx:fragmentId>
5

$$$$
