98101.cdx
  Mrv1902 05222410282D          

 42 46  0  0  0  0            999 V2000
    6.7982  -10.0872    0.0000 O   0  0  0  0  0  0  0  0  0  0  0  0
    5.3693   -7.6122    0.0000 O   0  0  0  0  0  0  0  0  0  0  0  0
   11.7995   -6.3747    0.0000 O   0  0  0  0  0  0  0  0  0  0  0  0
    9.6561   -6.7872    0.0000 C   0  0  0  0  0  0  0  0  0  0  0  0
   10.3706   -6.3747    0.0000 C   0  0  0  0  0  0  0  0  0  0  0  0
   11.0850   -6.7872    0.0000 C   0  0  0  0  0  0  0  0  0  0  0  0
   11.0850   -7.6122    0.0000 C   0  0  0  0  0  0  0  0  0  0  0  0
   10.3706   -8.0247    0.0000 C   0  0  0  0  0  0  0  0  0  0  0  0
    9.6561   -7.6122    0.0000 C   0  0  0  0  0  0  0  0  0  0  0  0
    8.2272  -10.0872    0.0000 O   0  0  0  0  0  0  0  0  0  0  0  0
    8.2272   -7.6122    0.0000 O   0  0  0  0  0  0  0  0  0  0  0  0
    7.5127   -8.0247    0.0000 C   0  0  0  0  0  0  0  0  0  0  0  0
    6.7982   -7.6122    0.0000 C   0  0  0  0  0  0  0  0  0  0  0  0
    6.0838   -8.0247    0.0000 C   0  0  0  0  0  0  0  0  0  0  0  0
    6.0838   -8.8497    0.0000 C   0  0  0  0  0  0  0  0  0  0  0  0
    6.7982   -9.2622    0.0000 C   0  0  0  0  0  0  0  0  0  0  0  0
    7.5127   -8.8497    0.0000 C   0  0  0  0  0  0  0  0  0  0  0  0
    8.2272   -9.2622    0.0000 C   0  0  0  0  0  0  0  0  0  0  0  0
    8.9416   -8.8497    0.0000 C   0  0  0  0  0  0  0  0  0  0  0  0
    8.9416   -8.0247    0.0000 C   0  0  0  0  0  0  0  0  0  0  0  0
    5.3693   -9.2622    0.0000 C   0  0  0  0  0  0  0  0  0  0  0  0
    6.7982   -6.7872    0.0000 C   0  0  0  0  0  0  0  0  0  0  0  0
    4.6548   -8.8497    0.0000 O   0  0  0  0  0  0  0  0  0  0  0  0
    3.9403   -9.2622    0.0000 C   0  0  0  0  0  0  0  0  0  0  0  0
    3.9403  -10.0872    0.0000 C   0  0  0  0  0  0  0  0  0  0  0  0
    4.6548  -10.4997    0.0000 C   0  0  0  0  0  0  0  0  0  0  0  0
    5.3693  -10.0872    0.0000 C   0  0  0  0  0  0  0  0  0  0  0  0
    7.5127   -6.3747    0.0000 O   0  0  0  0  0  0  0  0  0  0  0  0
    7.5127   -5.5497    0.0000 C   0  0  0  0  0  0  0  0  0  0  0  0
    6.7982   -5.1372    0.0000 C   0  0  0  0  0  0  0  0  0  0  0  0
    6.0838   -5.5497    0.0000 C   0  0  0  0  0  0  0  0  0  0  0  0
    6.0838   -6.3747    0.0000 C   0  0  0  0  0  0  0  0  0  0  0  0
    6.0838  -10.4997    0.0000 O   0  0  0  0  0  0  0  0  0  0  0  0
    4.6548  -11.3247    0.0000 O   0  0  0  0  0  0  0  0  0  0  0  0
    3.2259  -10.4997    0.0000 O   0  0  0  0  0  0  0  0  0  0  0  0
    3.2259   -8.8497    0.0000 C   0  0  0  0  0  0  0  0  0  0  0  0
    2.5114   -9.2622    0.0000 O   0  0  0  0  0  0  0  0  0  0  0  0
    5.3693   -6.7872    0.0000 O   0  0  0  0  0  0  0  0  0  0  0  0
    5.3693   -5.1372    0.0000 O   0  0  0  0  0  0  0  0  0  0  0  0
    6.7982   -4.3122    0.0000 O   0  0  0  0  0  0  0  0  0  0  0  0
    8.2272   -5.1372    0.0000 C   0  0  0  0  0  0  0  0  0  0  0  0
    8.2272   -4.3122    0.0000 O   0  0  0  0  0  0  0  0  0  0  0  0
 16  1  1  0  0  0  0
 14  2  1  0  0  0  0
 20  9  1  0  0  0  0
  6  3  1  0  0  0  0
  9  4  2  0  0  0  0
  5  4  1  0  0  0  0
  6  5  2  0  0  0  0
  7  6  1  0  0  0  0
  8  7  2  0  0  0  0
  9  8  1  0  0  0  0
 18 10  2  0  0  0  0
 20 11  1  0  0  0  0
 12 11  1  0  0  0  0
 17 12  2  0  0  0  0
 13 12  1  0  0  0  0
 14 13  2  0  0  0  0
 15 14  1  0  0  0  0
 16 15  2  0  0  0  0
 17 16  1  0  0  0  0
 18 17  1  0  0  0  0
 19 18  1  0  0  0  0
 20 19  2  0  0  0  0
 15 21  1  0  0  0  0
 13 22  1  0  0  0  0
 21 23  1  0  0  0  0
 23 24  1  0  0  0  0
 24 25  1  0  0  0  0
 25 26  1  0  0  0  0
 26 27  1  0  0  0  0
 27 21  1  0  0  0  0
 22 28  1  0  0  0  0
 28 29  1  0  0  0  0
 29 30  1  0  0  0  0
 30 31  1  0  0  0  0
 31 32  1  0  0  0  0
 32 22  1  0  0  0  0
 27 33  1  0  0  0  0
 26 34  1  0  0  0  0
 25 35  1  0  0  0  0
 24 36  1  0  0  0  0
 36 37  1  0  0  0  0
 32 38  1  0  0  0  0
 31 39  1  0  0  0  0
 30 40  1  0  0  0  0
 29 41  1  0  0  0  0
 41 42  1  0  0  0  0
M  END
>  <cdx:fragmentId>
5

$$$$
