98102.cdx
  Mrv1902 05222410272D          

 17 18  0  0  0  0            999 V2000
    5.8654   -6.9172    0.0000 C   0  0  0  0  0  0  0  0  0  0  0  0
    5.2001   -9.8164    0.0000 C   0  0  0  0  0  0  0  0  0  0  0  0
    5.8934   -8.5669    0.0000 C   0  0  0  0  0  0  0  0  0  0  0  0
    5.1861   -8.9915    0.0000 C   0  0  0  0  0  0  0  0  0  0  0  0
    4.4647   -8.5912    0.0000 C   0  0  0  0  0  0  0  0  0  0  0  0
    4.4507   -7.7663    0.0000 C   0  0  0  0  0  0  0  0  0  0  0  0
    5.1580   -7.3418    0.0000 C   0  0  0  0  0  0  0  0  0  0  0  0
    5.8794   -7.7420    0.0000 C   0  0  2  0  0  0  0  0  0  0  0  0
    6.5868   -7.3174    0.0000 C   0  0  0  0  0  0  0  0  0  0  0  0
    7.3081   -7.7177    0.0000 C   0  0  0  0  0  0  0  0  0  0  0  0
    7.3222   -8.5426    0.0000 C   0  0  2  0  0  0  0  0  0  0  0  0
    6.6148   -8.9672    0.0000 C   0  0  0  0  0  0  0  0  0  0  0  0
    8.7649   -9.3432    0.0000 O   0  0  0  0  0  0  0  0  0  0  0  0
    8.0436   -8.9429    0.0000 C   0  0  0  0  0  0  0  0  0  0  0  0
    7.6433   -9.6643    0.0000 C   0  0  0  0  0  0  0  0  0  0  0  0
    8.4438   -8.2215    0.0000 C   0  0  0  0  0  0  0  0  0  0  0  0
    7.3362   -9.3675    0.0000 H   0  0  0  0  0  0  0  0  0  0  0  0
 11 14  1  0  0  0  0
  8  1  1  6  0  0  0
  4  2  1  0  0  0  0
  8  3  1  0  0  0  0
 12  3  1  0  0  0  0
  4  3  2  0  0  0  0
  5  4  1  0  0  0  0
  6  5  1  0  0  0  0
  7  6  1  0  0  0  0
  8  7  1  0  0  0  0
  9  8  1  0  0  0  0
 10  9  1  0  0  0  0
 11 10  1  0  0  0  0
 12 11  1  0  0  0  0
 14 13  1  0  0  0  0
 14 15  1  0  0  0  0
 14 16  1  0  0  0  0
 11 17  1  6  0  0  0
M  END
>  <cdx:fragmentId>
13

$$$$
