98103.cdx
  Mrv1902 05222410272D          

 23 24  0  0  0  0            999 V2000
   10.3009   -6.7073    0.0000 C   0  0  0  0  0  0  0  0  0  0  0  0
   10.2998   -5.8823    0.0000 C   0  0  0  0  0  0  0  0  0  0  0  0
    9.5848   -5.4707    0.0000 C   0  0  0  0  0  0  0  0  0  0  0  0
    8.8709   -5.8841    0.0000 C   0  0  0  0  0  0  0  0  0  0  0  0
    8.8719   -6.7091    0.0000 C   0  0  0  0  0  0  0  0  0  0  0  0
    9.5869   -7.1207    0.0000 C   0  0  0  0  0  0  0  0  0  0  0  0
   11.0159   -7.1188    0.0000 O   0  0  0  0  0  0  0  0  0  0  0  0
   11.0170   -7.9438    0.0000 C   0  0  0  0  0  0  0  0  0  0  0  0
   11.0137   -5.4688    0.0000 O   0  0  0  0  0  0  0  0  0  0  0  0
    9.5837   -4.6457    0.0000 O   0  0  0  0  0  0  0  0  0  0  0  0
   10.2976   -4.2323    0.0000 C   0  0  0  0  0  0  0  0  0  0  0  0
    8.1580   -7.1226    0.0000 C   0  0  0  0  0  0  0  0  0  0  0  0
    7.4430   -6.7110    0.0000 C   0  0  0  0  0  0  0  0  0  0  0  0
    6.7291   -7.1244    0.0000 C   0  0  0  0  0  0  0  0  0  0  0  0
    6.0141   -6.7129    0.0000 C   0  0  0  0  0  0  0  0  0  0  0  0
    5.3001   -7.1263    0.0000 C   0  0  0  0  0  0  0  0  0  0  0  0
    5.3012   -7.9513    0.0000 C   0  0  0  0  0  0  0  0  0  0  0  0
    6.0162   -8.3629    0.0000 C   0  0  0  0  0  0  0  0  0  0  0  0
    6.7301   -7.9494    0.0000 C   0  0  0  0  0  0  0  0  0  0  0  0
    4.5851   -6.7148    0.0000 O   0  0  0  0  0  0  0  0  0  0  0  0
    4.5840   -5.8898    0.0000 C   0  0  0  0  0  0  0  0  0  0  0  0
    4.5873   -8.3648    0.0000 O   0  0  0  0  0  0  0  0  0  0  0  0
    3.8723   -7.9532    0.0000 C   0  0  0  0  0  0  0  0  0  0  0  0
  1  2  2  0  0  0  0
  2  3  1  0  0  0  0
  3  4  2  0  0  0  0
  4  5  1  0  0  0  0
  5  6  2  0  0  0  0
  6  1  1  0  0  0  0
  1  7  1  0  0  0  0
  7  8  1  0  0  0  0
  2  9  1  0  0  0  0
  3 10  1  0  0  0  0
 10 11  1  0  0  0  0
  5 12  1  0  0  0  0
 12 13  1  0  0  0  0
 13 14  1  0  0  0  0
 14 15  2  0  0  0  0
 15 16  1  0  0  0  0
 16 17  2  0  0  0  0
 17 18  1  0  0  0  0
 18 19  2  0  0  0  0
 19 14  1  0  0  0  0
 16 20  1  0  0  0  0
 20 21  1  0  0  0  0
 17 22  1  0  0  0  0
 22 23  1  0  0  0  0
M  END
>  <cdx:fragmentId>
5

$$$$
