98112-.cdx
  Mrv1902 05222410262D          

 25 25  0  0  0  0            999 V2000
    4.2825   -8.0522    0.0000 C   0  0  0  0  0  0  0  0  0  0  0  0
    4.9970   -8.4647    0.0000 C   0  0  0  0  0  0  0  0  0  0  0  0
    5.7114   -8.0522    0.0000 C   0  0  0  0  0  0  0  0  0  0  0  0
    6.4259   -8.4647    0.0000 C   0  0  0  0  0  0  0  0  0  0  0  0
    7.1404   -8.0522    0.0000 C   0  0  0  0  0  0  0  0  0  0  0  0
    7.8549   -8.4647    0.0000 C   0  0  0  0  0  0  0  0  0  0  0  0
    8.5693   -8.0522    0.0000 C   0  0  0  0  0  0  0  0  0  0  0  0
    9.2838   -8.4647    0.0000 C   0  0  0  0  0  0  0  0  0  0  0  0
    5.7114   -7.2272    0.0000 O   0  0  0  0  0  0  0  0  0  0  0  0
    3.5680   -8.4647    0.0000 C   0  0  0  0  0  0  0  0  0  0  0  0
    2.8536   -8.0522    0.0000 C   0  0  0  0  0  0  0  0  0  0  0  0
    2.1391   -8.4647    0.0000 C   0  0  0  0  0  0  0  0  0  0  0  0
    2.1391   -9.2897    0.0000 C   0  0  0  0  0  0  0  0  0  0  0  0
    2.8536   -9.7022    0.0000 C   0  0  0  0  0  0  0  0  0  0  0  0
    3.5680   -9.2897    0.0000 C   0  0  0  0  0  0  0  0  0  0  0  0
    1.4246   -8.0522    0.0000 O   0  0  0  0  0  0  0  0  0  0  0  0
    0.7101   -8.4647    0.0000 C   0  0  0  0  0  0  0  0  0  0  0  0
    1.4246   -9.7022    0.0000 O   0  0  0  0  0  0  0  0  0  0  0  0
    7.1404   -7.2272    0.0000 O   0  0  0  0  0  0  0  0  0  0  0  0
   11.4272   -4.7522    0.0000 C   0  0  0  0  0  0  0  0  0  0  0  0
   11.4272   -5.5772    0.0000 C   0  0  0  0  0  0  0  0  0  0  0  0
   10.7127   -5.9897    0.0000 C   0  0  0  0  0  0  0  0  0  0  0  0
   10.7127   -6.8147    0.0000 C   0  0  0  0  0  0  0  0  0  0  0  0
    9.9983   -7.2272    0.0000 C   0  0  0  0  0  0  0  0  0  0  0  0
    9.9983   -8.0522    0.0000 C   0  0  0  0  0  0  0  0  0  0  0  0
  1  2  1  0  0  0  0
  2  3  1  0  0  0  0
  3  4  1  0  0  0  0
  4  5  2  0  0  0  0
  5  6  1  0  0  0  0
  6  7  1  0  0  0  0
  7  8  1  0  0  0  0
  3  9  2  0  0  0  0
 10 11  1  0  0  0  0
 11 12  2  0  0  0  0
 12 13  1  0  0  0  0
 13 14  2  0  0  0  0
 14 15  1  0  0  0  0
 10 15  2  0  0  0  0
 16 17  1  0  0  0  0
 12 16  1  0  0  0  0
 13 18  1  0  0  0  0
  1 10  1  0  0  0  0
  5 19  1  0  0  0  0
 21 20  1  0  0  0  0
  8 25  2  0  0  0  0
 22 21  1  0  0  0  0
 23 22  1  0  0  0  0
 24 23  1  0  0  0  0
 25 24  1  0  0  0  0
M  END
>  <cdx:fragmentId>
5

$$$$
