98118.cdx
  Mrv1902 05222410182D          

  9  9  0  0  0  0            999 V2000
    6.9792   -6.5316    0.0000 O   0  0  0  0  0  0  0  0  0  0  0  0
    7.6643   -6.9912    0.0000 C   0  0  0  0  0  0  0  0  0  0  0  0
    7.4389   -7.7848    0.0000 C   0  0  0  0  0  0  0  0  0  0  0  0
    6.6145   -7.8157    0.0000 C   0  0  0  0  0  0  0  0  0  0  0  0
    6.3303   -7.0412    0.0000 C   0  0  0  0  0  0  0  0  0  0  0  0
    8.4388   -6.7071    0.0000 C   0  0  0  0  0  0  0  0  0  0  0  0
    8.5800   -5.8943    0.0000 O   0  0  0  0  0  0  0  0  0  0  0  0
    7.9484   -8.4337    0.0000 O   0  0  0  0  0  0  0  0  0  0  0  0
    7.6017   -9.1822    0.0000 C   0  0  0  0  0  0  0  0  0  0  0  0
  1  2  1  0  0  0  0
  2  3  2  0  0  0  0
  3  4  1  0  0  0  0
  4  5  2  0  0  0  0
  1  5  1  0  0  0  0
  6  7  2  0  0  0  0
  2  6  1  0  0  0  0
  3  8  1  0  0  0  0
  8  9  1  0  0  0  0
M  END
>  <cdx:fragmentId>
5

$$$$
