98116.cdx
  Mrv1902 05222410272D          

 45 49  0  0  0  0            999 V2000
   11.2083   -8.0522    0.0000 O   0  0  0  0  0  0  0  0  0  0  0  0
   11.2083   -6.4022    0.0000 O   0  0  0  0  0  0  0  0  0  0  0  0
    9.0649   -6.8147    0.0000 C   0  0  0  0  0  0  0  0  0  0  0  0
    9.7793   -6.4022    0.0000 C   0  0  0  0  0  0  0  0  0  0  0  0
   10.4938   -6.8147    0.0000 C   0  0  0  0  0  0  0  0  0  0  0  0
   10.4938   -7.6397    0.0000 C   0  0  0  0  0  0  0  0  0  0  0  0
    9.7793   -8.0522    0.0000 C   0  0  0  0  0  0  0  0  0  0  0  0
    9.0649   -7.6397    0.0000 C   0  0  0  0  0  0  0  0  0  0  0  0
    6.2070  -10.1147    0.0000 O   0  0  0  0  0  0  0  0  0  0  0  0
    4.7780   -7.6397    0.0000 O   0  0  0  0  0  0  0  0  0  0  0  0
    7.6359  -10.1147    0.0000 O   0  0  0  0  0  0  0  0  0  0  0  0
    7.6359   -7.6397    0.0000 O   0  0  0  0  0  0  0  0  0  0  0  0
    6.9214   -8.0522    0.0000 C   0  0  0  0  0  0  0  0  0  0  0  0
    6.2070   -7.6397    0.0000 C   0  0  0  0  0  0  0  0  0  0  0  0
    5.4925   -8.0522    0.0000 C   0  0  0  0  0  0  0  0  0  0  0  0
    5.4925   -8.8772    0.0000 C   0  0  0  0  0  0  0  0  0  0  0  0
    6.2070   -9.2897    0.0000 C   0  0  0  0  0  0  0  0  0  0  0  0
    6.9214   -8.8772    0.0000 C   0  0  0  0  0  0  0  0  0  0  0  0
    7.6359   -9.2897    0.0000 C   0  0  0  0  0  0  0  0  0  0  0  0
    8.3504   -8.8772    0.0000 C   0  0  0  0  0  0  0  0  0  0  0  0
    8.3504   -8.0522    0.0000 C   0  0  0  0  0  0  0  0  0  0  0  0
    4.0636   -8.0522    0.0000 C   0  0  0  0  0  0  0  0  0  0  0  0
    3.3491   -7.6397    0.0000 O   0  0  0  0  0  0  0  0  0  0  0  0
    2.6346   -8.0522    0.0000 C   0  0  1  0  0  0  0  0  0  0  0  0
    2.6346   -8.8772    0.0000 C   0  0  2  0  0  0  0  0  0  0  0  0
    3.3491   -9.2897    0.0000 C   0  0  1  0  0  0  0  0  0  0  0  0
    4.0636   -8.8772    0.0000 C   0  0  1  0  0  0  0  0  0  0  0  0
    1.9201   -7.6397    0.0000 C   0  0  0  0  0  0  0  0  0  0  0  0
    3.3491  -10.1147    0.0000 O   0  0  0  0  0  0  0  0  0  0  0  0
    1.9201   -9.2897    0.0000 O   0  0  0  0  0  0  0  0  0  0  0  0
    4.7780   -9.2897    0.0000 O   0  0  0  0  0  0  0  0  0  0  0  0
    1.2057   -8.0522    0.0000 O   0  0  0  0  0  0  0  0  0  0  0  0
    1.9201   -6.8147    0.0000 O   0  0  0  0  0  0  0  0  0  0  0  0
   11.2028   -8.8853    0.0000 C   0  0  0  0  0  0  0  0  0  0  0  0
   10.4896   -9.2999    0.0000 O   0  0  0  0  0  0  0  0  0  0  0  0
   10.4920  -10.1249    0.0000 C   0  0  1  0  0  0  0  0  0  0  0  0
   11.2077  -10.5353    0.0000 C   0  0  2  0  0  0  0  0  0  0  0  0
   11.9210  -10.1206    0.0000 C   0  0  1  0  0  0  0  0  0  0  0  0
   11.9185   -9.2956    0.0000 C   0  0  1  0  0  0  0  0  0  0  0  0
    9.7788  -10.5395    0.0000 C   0  0  0  0  0  0  0  0  0  0  0  0
   12.6367  -10.5310    0.0000 O   0  0  0  0  0  0  0  0  0  0  0  0
   11.2102  -11.3602    0.0000 O   0  0  0  0  0  0  0  0  0  0  0  0
   12.6317   -8.8810    0.0000 O   0  0  0  0  0  0  0  0  0  0  0  0
    9.7813  -11.3645    0.0000 O   0  0  0  0  0  0  0  0  0  0  0  0
    9.0631  -10.1292    0.0000 O   0  0  0  0  0  0  0  0  0  0  0  0
 21  8  1  0  0  0  0
  6  1  1  0  0  0  0
  5  2  1  0  0  0  0
  8  3  2  0  0  0  0
  4  3  1  0  0  0  0
  5  4  2  0  0  0  0
  6  5  1  0  0  0  0
  7  6  2  0  0  0  0
  8  7  1  0  0  0  0
 17  9  1  0  0  0  0
 15 10  1  0  0  0  0
 19 11  2  0  0  0  0
 21 12  1  0  0  0  0
 13 12  1  0  0  0  0
 18 13  2  0  0  0  0
 14 13  1  0  0  0  0
 15 14  2  0  0  0  0
 16 15  1  0  0  0  0
 17 16  2  0  0  0  0
 18 17  1  0  0  0  0
 19 18  1  0  0  0  0
 20 19  1  0  0  0  0
 21 20  2  0  0  0  0
 10 22  1  0  0  0  0
 22 23  1  0  0  0  0
 23 24  1  0  0  0  0
 24 25  1  0  0  0  0
 25 26  1  0  0  0  0
 26 27  1  0  0  0  0
 27 22  1  0  0  0  0
 24 28  1  1  0  0  0
 26 29  1  1  0  0  0
 25 30  1  6  0  0  0
 27 31  1  6  0  0  0
 28 32  1  0  0  0  0
 28 33  2  0  0  0  0
 34 35  1  0  0  0  0
 35 36  1  0  0  0  0
 36 37  1  0  0  0  0
 37 38  1  0  0  0  0
 38 39  1  0  0  0  0
 39 34  1  0  0  0  0
 36 40  1  1  0  0  0
 38 41  1  1  0  0  0
 37 42  1  6  0  0  0
 39 43  1  6  0  0  0
 40 44  1  0  0  0  0
 40 45  2  0  0  0  0
 34  1  1  0  0  0  0
M  END
>  <cdx:fragmentId>
5

$$$$
