98115.cdx
  Mrv1902 05222410282D          

 33 36  0  0  0  0            999 V2000
   11.6483   -8.2997    0.0000 O   0  0  0  0  0  0  0  0  0  0  0  0
   11.6483   -6.6497    0.0000 O   0  0  0  0  0  0  0  0  0  0  0  0
    9.5049   -7.0622    0.0000 C   0  0  0  0  0  0  0  0  0  0  0  0
   10.2193   -6.6497    0.0000 C   0  0  0  0  0  0  0  0  0  0  0  0
   10.9338   -7.0622    0.0000 C   0  0  0  0  0  0  0  0  0  0  0  0
   10.9338   -7.8872    0.0000 C   0  0  0  0  0  0  0  0  0  0  0  0
   10.2193   -8.2997    0.0000 C   0  0  0  0  0  0  0  0  0  0  0  0
    9.5049   -7.8872    0.0000 C   0  0  0  0  0  0  0  0  0  0  0  0
    6.6470  -10.3622    0.0000 O   0  0  0  0  0  0  0  0  0  0  0  0
    5.2180   -7.8872    0.0000 O   0  0  0  0  0  0  0  0  0  0  0  0
    8.0759  -10.3622    0.0000 O   0  0  0  0  0  0  0  0  0  0  0  0
    8.0759   -7.8872    0.0000 O   0  0  0  0  0  0  0  0  0  0  0  0
    7.3614   -8.2997    0.0000 C   0  0  0  0  0  0  0  0  0  0  0  0
    6.6470   -7.8872    0.0000 C   0  0  0  0  0  0  0  0  0  0  0  0
    5.9325   -8.2997    0.0000 C   0  0  0  0  0  0  0  0  0  0  0  0
    5.9325   -9.1247    0.0000 C   0  0  0  0  0  0  0  0  0  0  0  0
    6.6470   -9.5372    0.0000 C   0  0  0  0  0  0  0  0  0  0  0  0
    7.3614   -9.1247    0.0000 C   0  0  0  0  0  0  0  0  0  0  0  0
    8.0759   -9.5372    0.0000 C   0  0  0  0  0  0  0  0  0  0  0  0
    8.7904   -9.1247    0.0000 C   0  0  0  0  0  0  0  0  0  0  0  0
    8.7904   -8.2997    0.0000 C   0  0  0  0  0  0  0  0  0  0  0  0
    4.5036   -8.2997    0.0000 C   0  0  0  0  0  0  0  0  0  0  0  0
    3.7891   -7.8872    0.0000 O   0  0  0  0  0  0  0  0  0  0  0  0
    3.0746   -8.2997    0.0000 C   0  0  1  0  0  0  0  0  0  0  0  0
    3.0746   -9.1247    0.0000 C   0  0  2  0  0  0  0  0  0  0  0  0
    3.7891   -9.5372    0.0000 C   0  0  1  0  0  0  0  0  0  0  0  0
    4.5036   -9.1247    0.0000 C   0  0  1  0  0  0  0  0  0  0  0  0
    2.3601   -7.8872    0.0000 C   0  0  0  0  0  0  0  0  0  0  0  0
    3.7891  -10.3622    0.0000 O   0  0  0  0  0  0  0  0  0  0  0  0
    2.3601   -9.5372    0.0000 O   0  0  0  0  0  0  0  0  0  0  0  0
    5.2180   -9.5372    0.0000 O   0  0  0  0  0  0  0  0  0  0  0  0
    1.6457   -8.2997    0.0000 O   0  0  0  0  0  0  0  0  0  0  0  0
    2.3601   -7.0622    0.0000 O   0  0  0  0  0  0  0  0  0  0  0  0
 21  8  1  0  0  0  0
  6  1  1  0  0  0  0
  5  2  1  0  0  0  0
  8  3  2  0  0  0  0
  4  3  1  0  0  0  0
  5  4  2  0  0  0  0
  6  5  1  0  0  0  0
  7  6  2  0  0  0  0
  8  7  1  0  0  0  0
 17  9  1  0  0  0  0
 15 10  1  0  0  0  0
 19 11  2  0  0  0  0
 21 12  1  0  0  0  0
 13 12  1  0  0  0  0
 18 13  2  0  0  0  0
 14 13  1  0  0  0  0
 15 14  2  0  0  0  0
 16 15  1  0  0  0  0
 17 16  2  0  0  0  0
 18 17  1  0  0  0  0
 19 18  1  0  0  0  0
 20 19  1  0  0  0  0
 21 20  2  0  0  0  0
 10 22  1  0  0  0  0
 22 23  1  0  0  0  0
 23 24  1  0  0  0  0
 24 25  1  0  0  0  0
 25 26  1  0  0  0  0
 26 27  1  0  0  0  0
 27 22  1  0  0  0  0
 24 28  1  1  0  0  0
 26 29  1  1  0  0  0
 25 30  1  6  0  0  0
 27 31  1  6  0  0  0
 28 32  1  0  0  0  0
 28 33  2  0  0  0  0
M  END
>  <cdx:fragmentId>
5

$$$$
