98110-.cdx
  Mrv1902 05222410262D          

 27 27  0  0  0  0            999 V2000
    3.8703   -7.4335    0.0000 C   0  0  0  0  0  0  0  0  0  0  0  0
    4.5133   -7.8047    0.0000 C   0  0  0  0  0  0  0  0  0  0  0  0
    5.1564   -7.4335    0.0000 C   0  0  0  0  0  0  0  0  0  0  0  0
    9.6575   -7.8047    0.0000 C   0  0  0  0  0  0  0  0  0  0  0  0
   11.8009   -4.0922    0.0000 C   0  0  0  0  0  0  0  0  0  0  0  0
   11.8009   -4.9172    0.0000 C   0  0  0  0  0  0  0  0  0  0  0  0
   11.0865   -5.3297    0.0000 C   0  0  0  0  0  0  0  0  0  0  0  0
    5.1564   -6.6910    0.0000 O   0  0  0  0  0  0  0  0  0  0  0  0
    3.2273   -7.8047    0.0000 C   0  0  0  0  0  0  0  0  0  0  0  0
    2.5843   -7.4335    0.0000 C   0  0  0  0  0  0  0  0  0  0  0  0
    1.9412   -7.8047    0.0000 C   0  0  0  0  0  0  0  0  0  0  0  0
    1.9412   -8.5472    0.0000 C   0  0  0  0  0  0  0  0  0  0  0  0
    2.5843   -8.9185    0.0000 C   0  0  0  0  0  0  0  0  0  0  0  0
    3.2273   -8.5472    0.0000 C   0  0  0  0  0  0  0  0  0  0  0  0
    1.2982   -7.4335    0.0000 O   0  0  0  0  0  0  0  0  0  0  0  0
    0.6552   -7.8047    0.0000 C   0  0  0  0  0  0  0  0  0  0  0  0
    1.2982   -8.9185    0.0000 O   0  0  0  0  0  0  0  0  0  0  0  0
   11.0865   -6.1547    0.0000 C   0  0  0  0  0  0  0  0  0  0  0  0
   10.3720   -6.5672    0.0000 C   0  0  0  0  0  0  0  0  0  0  0  0
    5.7994   -7.8047    0.0000 C   0  0  0  0  0  0  0  0  0  0  0  0
    6.4424   -7.4335    0.0000 C   0  0  0  0  0  0  0  0  0  0  0  0
    7.0854   -7.8047    0.0000 C   0  0  0  0  0  0  0  0  0  0  0  0
    7.7285   -7.4335    0.0000 C   0  0  0  0  0  0  0  0  0  0  0  0
    8.3715   -7.8047    0.0000 C   0  0  0  0  0  0  0  0  0  0  0  0
    9.0145   -7.4335    0.0000 C   0  0  0  0  0  0  0  0  0  0  0  0
    6.4424   -6.6910    0.0000 O   0  0  0  0  0  0  0  0  0  0  0  0
   10.3720   -7.3922    0.0000 C   0  0  0  0  0  0  0  0  0  0  0  0
  6  5  1  0  0  0  0
  4 27  2  0  0  0  0
  7  6  1  0  0  0  0
 18  7  1  0  0  0  0
 19 18  1  0  0  0  0
  1  2  1  0  0  0  0
  2  3  1  0  0  0  0
  3 20  1  0  0  0  0
 27 19  1  0  0  0  0
  3  8  2  0  0  0  0
  9 10  1  0  0  0  0
 10 11  2  0  0  0  0
 11 12  1  0  0  0  0
 12 13  2  0  0  0  0
 13 14  1  0  0  0  0
  9 14  2  0  0  0  0
 15 16  1  0  0  0  0
 11 15  1  0  0  0  0
 12 17  1  0  0  0  0
  1  9  1  0  0  0  0
 20 21  2  0  0  0  0
 21 22  1  0  0  0  0
 22 23  1  0  0  0  0
 23 24  1  0  0  0  0
 24 25  1  0  0  0  0
 25  4  1  0  0  0  0
 21 26  1  0  0  0  0
M  END
>  <cdx:fragmentId>
5

$$$$
