98114.cdx
  Mrv1902 05222410282D          

 33 34  0  0  0  0            999 V2000
    4.7074   -7.7550    0.0000 C   0  0  0  0  0  0  0  0  0  0  0  0
    4.7074   -8.5800    0.0000 C   0  0  0  0  0  0  0  0  0  0  0  0
    5.4219   -8.9925    0.0000 C   0  0  0  0  0  0  0  0  0  0  0  0
    6.1364   -8.5800    0.0000 C   0  0  0  0  0  0  0  0  0  0  0  0
    6.1364   -7.7550    0.0000 C   0  0  0  0  0  0  0  0  0  0  0  0
    5.4219   -7.3425    0.0000 C   0  0  0  0  0  0  0  0  0  0  0  0
    5.4219   -9.8175    0.0000 O   0  0  0  0  0  0  0  0  0  0  0  0
    6.1364  -10.2300    0.0000 C   0  0  0  0  0  0  0  0  0  0  0  0
    3.9930   -8.9925    0.0000 O   0  0  0  0  0  0  0  0  0  0  0  0
    6.8508   -7.3425    0.0000 C   0  0  0  0  0  0  0  0  0  0  0  0
    7.5653   -7.7550    0.0000 C   0  0  0  0  0  0  0  0  0  0  0  0
    8.2798   -7.3425    0.0000 C   0  0  0  0  0  0  0  0  0  0  0  0
    8.9943   -7.7550    0.0000 C   0  0  0  0  0  0  0  0  0  0  0  0
    8.2798   -6.5175    0.0000 O   0  0  0  0  0  0  0  0  0  0  0  0
    9.7087   -7.3425    0.0000 C   0  0  2  0  0  0  0  0  0  0  0  0
   10.4232   -7.7550    0.0000 C   0  0  0  0  0  0  0  0  0  0  0  0
    9.7087   -6.5175    0.0000 O   0  0  0  0  0  0  0  0  0  0  0  0
   11.1377   -7.3425    0.0000 C   0  0  0  0  0  0  0  0  0  0  0  0
   11.8521   -7.7550    0.0000 C   0  0  0  0  0  0  0  0  0  0  0  0
   12.5666   -7.3425    0.0000 C   0  0  0  0  0  0  0  0  0  0  0  0
   13.2811   -7.7550    0.0000 C   0  0  0  0  0  0  0  0  0  0  0  0
    3.2785   -8.5800    0.0000 C   0  0  2  0  0  0  0  0  0  0  0  0
    3.2785   -7.7550    0.0000 O   0  0  0  0  0  0  0  0  0  0  0  0
    2.5640   -7.3425    0.0000 C   0  0  1  0  0  0  0  0  0  0  0  0
    1.8495   -7.7550    0.0000 C   0  0  2  0  0  0  0  0  0  0  0  0
    1.8495   -8.5800    0.0000 C   0  0  1  0  0  0  0  0  0  0  0  0
    2.5640   -8.9925    0.0000 C   0  0  1  0  0  0  0  0  0  0  0  0
    2.5640   -6.5175    0.0000 C   0  0  0  0  0  0  0  0  0  0  0  0
    1.1351   -8.9925    0.0000 O   0  0  0  0  0  0  0  0  0  0  0  0
    1.1351   -7.3425    0.0000 O   0  0  0  0  0  0  0  0  0  0  0  0
    2.5640   -9.8175    0.0000 O   0  0  0  0  0  0  0  0  0  0  0  0
    1.8495   -6.1050    0.0000 O   0  0  0  0  0  0  0  0  0  0  0  0
    3.2785   -6.1050    0.0000 O   0  0  0  0  0  0  0  0  0  0  0  0
  1  2  2  0  0  0  0
  2  3  1  0  0  0  0
  3  4  2  0  0  0  0
  4  5  1  0  0  0  0
  5  6  2  0  0  0  0
  6  1  1  0  0  0  0
  3  7  1  0  0  0  0
  7  8  1  0  0  0  0
  2  9  1  0  0  0  0
  5 10  1  0  0  0  0
 10 11  1  0  0  0  0
 11 12  1  0  0  0  0
 12 13  1  0  0  0  0
 12 14  2  0  0  0  0
 13 15  1  0  0  0  0
 15 16  1  0  0  0  0
 15 17  1  1  0  0  0
 16 18  1  0  0  0  0
 18 19  1  0  0  0  0
 19 20  1  0  0  0  0
 20 21  1  0  0  0  0
 22  9  1  1  0  0  0
 22 23  1  0  0  0  0
 23 24  1  0  0  0  0
 24 25  1  0  0  0  0
 25 26  1  0  0  0  0
 26 27  1  0  0  0  0
 27 22  1  0  0  0  0
 24 28  1  1  0  0  0
 26 29  1  1  0  0  0
 25 30  1  6  0  0  0
 27 31  1  6  0  0  0
 28 32  2  0  0  0  0
 28 33  1  0  0  0  0
M  END
>  <cdx:fragmentId>
5

$$$$
