98117.cdx
  Mrv1902 05222410272D          

 44 48  0  0  0  0            999 V2000
   10.7133   -8.1622    0.0000 O   0  0  0  0  0  0  0  0  0  0  0  0
   10.7133   -6.5122    0.0000 O   0  0  0  0  0  0  0  0  0  0  0  0
    8.5699   -6.9247    0.0000 C   0  0  0  0  0  0  0  0  0  0  0  0
    9.2843   -6.5122    0.0000 C   0  0  0  0  0  0  0  0  0  0  0  0
    9.9988   -6.9247    0.0000 C   0  0  0  0  0  0  0  0  0  0  0  0
    9.9988   -7.7497    0.0000 C   0  0  0  0  0  0  0  0  0  0  0  0
    9.2843   -8.1622    0.0000 C   0  0  0  0  0  0  0  0  0  0  0  0
    8.5699   -7.7497    0.0000 C   0  0  0  0  0  0  0  0  0  0  0  0
    5.7120  -10.2247    0.0000 O   0  0  0  0  0  0  0  0  0  0  0  0
    4.2830   -7.7497    0.0000 O   0  0  0  0  0  0  0  0  0  0  0  0
    7.1409  -10.2247    0.0000 O   0  0  0  0  0  0  0  0  0  0  0  0
    7.1409   -7.7497    0.0000 O   0  0  0  0  0  0  0  0  0  0  0  0
    6.4264   -8.1622    0.0000 C   0  0  0  0  0  0  0  0  0  0  0  0
    5.7120   -7.7497    0.0000 C   0  0  0  0  0  0  0  0  0  0  0  0
    4.9975   -8.1622    0.0000 C   0  0  0  0  0  0  0  0  0  0  0  0
    4.9975   -8.9872    0.0000 C   0  0  0  0  0  0  0  0  0  0  0  0
    5.7120   -9.3997    0.0000 C   0  0  0  0  0  0  0  0  0  0  0  0
    6.4264   -8.9872    0.0000 C   0  0  0  0  0  0  0  0  0  0  0  0
    7.1409   -9.3997    0.0000 C   0  0  0  0  0  0  0  0  0  0  0  0
    7.8554   -8.9872    0.0000 C   0  0  0  0  0  0  0  0  0  0  0  0
    7.8554   -8.1622    0.0000 C   0  0  0  0  0  0  0  0  0  0  0  0
    3.5686   -8.1622    0.0000 C   0  0  0  0  0  0  0  0  0  0  0  0
    2.8541   -7.7497    0.0000 O   0  0  0  0  0  0  0  0  0  0  0  0
    2.1396   -8.1622    0.0000 C   0  0  1  0  0  0  0  0  0  0  0  0
    2.1396   -8.9872    0.0000 C   0  0  2  0  0  0  0  0  0  0  0  0
    2.8541   -9.3997    0.0000 C   0  0  1  0  0  0  0  0  0  0  0  0
    3.5686   -8.9872    0.0000 C   0  0  1  0  0  0  0  0  0  0  0  0
    1.4251   -7.7497    0.0000 C   0  0  0  0  0  0  0  0  0  0  0  0
    2.8541  -10.2247    0.0000 O   0  0  0  0  0  0  0  0  0  0  0  0
    1.4251   -9.3997    0.0000 O   0  0  0  0  0  0  0  0  0  0  0  0
    4.2830   -9.3997    0.0000 O   0  0  0  0  0  0  0  0  0  0  0  0
    0.7107   -8.1622    0.0000 O   0  0  0  0  0  0  0  0  0  0  0  0
    1.4251   -6.9247    0.0000 O   0  0  0  0  0  0  0  0  0  0  0  0
   11.4299   -6.9412    0.0000 C   0  0  0  0  0  0  0  0  0  0  0  0
   11.4292   -7.7662    0.0000 O   0  0  0  0  0  0  0  0  0  0  0  0
   12.1434   -8.1792    0.0000 C   0  0  1  0  0  0  0  0  0  0  0  0
   12.8582   -7.7673    0.0000 C   0  0  2  0  0  0  0  0  0  0  0  0
   12.8588   -6.9423    0.0000 C   0  0  1  0  0  0  0  0  0  0  0  0
   12.1446   -6.5292    0.0000 C   0  0  1  0  0  0  0  0  0  0  0  0
   12.1427   -9.0042    0.0000 C   0  0  0  0  0  0  0  0  0  0  0  0
   13.5736   -6.5303    0.0000 O   0  0  0  0  0  0  0  0  0  0  0  0
   13.5723   -8.1803    0.0000 O   0  0  0  0  0  0  0  0  0  0  0  0
   12.1453   -5.7042    0.0000 O   0  0  0  0  0  0  0  0  0  0  0  0
   12.8569   -9.4173    0.0000 O   0  0  0  0  0  0  0  0  0  0  0  0
 21  8  1  0  0  0  0
  6  1  1  0  0  0  0
  5  2  1  0  0  0  0
  8  3  2  0  0  0  0
  4  3  1  0  0  0  0
  5  4  2  0  0  0  0
  6  5  1  0  0  0  0
  7  6  2  0  0  0  0
  8  7  1  0  0  0  0
 17  9  1  0  0  0  0
 15 10  1  0  0  0  0
 19 11  2  0  0  0  0
 21 12  1  0  0  0  0
 13 12  1  0  0  0  0
 18 13  2  0  0  0  0
 14 13  1  0  0  0  0
 15 14  2  0  0  0  0
 16 15  1  0  0  0  0
 17 16  2  0  0  0  0
 18 17  1  0  0  0  0
 19 18  1  0  0  0  0
 20 19  1  0  0  0  0
 21 20  2  0  0  0  0
 10 22  1  0  0  0  0
 22 23  1  0  0  0  0
 23 24  1  0  0  0  0
 24 25  1  0  0  0  0
 25 26  1  0  0  0  0
 26 27  1  0  0  0  0
 27 22  1  0  0  0  0
 24 28  1  1  0  0  0
 26 29  1  1  0  0  0
 25 30  1  6  0  0  0
 27 31  1  6  0  0  0
 28 32  1  0  0  0  0
 28 33  2  0  0  0  0
 34 35  1  0  0  0  0
 35 36  1  0  0  0  0
 36 37  1  0  0  0  0
 37 38  1  0  0  0  0
 38 39  1  0  0  0  0
 39 34  1  0  0  0  0
 36 40  1  1  0  0  0
 38 41  1  1  0  0  0
 37 42  1  6  0  0  0
 39 43  1  6  0  0  0
 40 44  1  0  0  0  0
 34  2  1  0  0  0  0
M  END
>  <cdx:fragmentId>
5

$$$$
