98111-.cdx
  Mrv1902 05222410262D          

 31 31  0  0  0  0            999 V2000
    5.0972   -6.7494    0.0000 C   0  0  0  0  0  0  0  0  0  0  0  0
    5.8117   -7.1619    0.0000 C   0  0  0  0  0  0  0  0  0  0  0  0
    6.5262   -6.7494    0.0000 C   0  0  0  0  0  0  0  0  0  0  0  0
    7.2406   -7.1619    0.0000 C   0  0  0  0  0  0  0  0  0  0  0  0
    7.9551   -6.7494    0.0000 C   0  0  0  0  0  0  0  0  0  0  0  0
    8.6696   -7.1619    0.0000 C   0  0  0  0  0  0  0  0  0  0  0  0
    9.3841   -6.7494    0.0000 C   0  0  0  0  0  0  0  0  0  0  0  0
   10.0985   -7.1619    0.0000 C   0  0  0  0  0  0  0  0  0  0  0  0
   10.8130   -6.7494    0.0000 C   0  0  0  0  0  0  0  0  0  0  0  0
   11.5275   -7.1619    0.0000 C   0  0  0  0  0  0  0  0  0  0  0  0
   13.6709   -9.2244    0.0000 C   0  0  0  0  0  0  0  0  0  0  0  0
    6.5262   -5.9244    0.0000 O   0  0  0  0  0  0  0  0  0  0  0  0
    4.3828   -7.1619    0.0000 C   0  0  0  0  0  0  0  0  0  0  0  0
    3.6683   -6.7494    0.0000 C   0  0  0  0  0  0  0  0  0  0  0  0
    2.9538   -7.1619    0.0000 C   0  0  0  0  0  0  0  0  0  0  0  0
    2.9538   -7.9869    0.0000 C   0  0  0  0  0  0  0  0  0  0  0  0
    3.6683   -8.3994    0.0000 C   0  0  0  0  0  0  0  0  0  0  0  0
    4.3828   -7.9869    0.0000 C   0  0  0  0  0  0  0  0  0  0  0  0
    2.2394   -6.7494    0.0000 O   0  0  0  0  0  0  0  0  0  0  0  0
    1.5249   -7.1619    0.0000 C   0  0  0  0  0  0  0  0  0  0  0  0
    2.2394   -8.3994    0.0000 O   0  0  0  0  0  0  0  0  0  0  0  0
   12.9564   -9.6369    0.0000 C   0  0  0  0  0  0  0  0  0  0  0  0
   12.9564  -10.4619    0.0000 C   0  0  0  0  0  0  0  0  0  0  0  0
   12.2419  -10.8744    0.0000 C   0  0  0  0  0  0  0  0  0  0  0  0
   12.2419  -11.6994    0.0000 C   0  0  0  0  0  0  0  0  0  0  0  0
   11.5275  -12.1119    0.0000 C   0  0  0  0  0  0  0  0  0  0  0  0
   13.6709   -8.3994    0.0000 C   0  0  0  0  0  0  0  0  0  0  0  0
   12.9564   -7.9869    0.0000 C   0  0  0  0  0  0  0  0  0  0  0  0
   12.9564   -7.1619    0.0000 C   0  0  0  0  0  0  0  0  0  0  0  0
   12.2419   -6.7494    0.0000 C   0  0  0  0  0  0  0  0  0  0  0  0
    7.9551   -5.9244    0.0000 O   0  0  0  0  0  0  0  0  0  0  0  0
  1  2  1  0  0  0  0
  2  3  1  0  0  0  0
  3  4  1  0  0  0  0
  4  5  2  0  0  0  0
  5  6  1  0  0  0  0
  6  7  1  0  0  0  0
  7  8  1  0  0  0  0
  8  9  1  0  0  0  0
  9 10  1  0  0  0  0
 10 30  1  0  0  0  0
  3 12  2  0  0  0  0
 13 14  1  0  0  0  0
 14 15  2  0  0  0  0
 15 16  1  0  0  0  0
 16 17  2  0  0  0  0
 17 18  1  0  0  0  0
 13 18  2  0  0  0  0
 19 20  1  0  0  0  0
 15 19  1  0  0  0  0
 16 21  1  0  0  0  0
  1 13  1  0  0  0  0
 11 22  1  0  0  0  0
 22 23  1  0  0  0  0
 23 24  1  0  0  0  0
 24 25  1  0  0  0  0
 27 11  2  0  0  0  0
 25 26  1  0  0  0  0
 28 27  1  0  0  0  0
 29 28  1  0  0  0  0
 30 29  2  0  0  0  0
  5 31  1  0  0  0  0
M  END
>  <cdx:groupId>
128

>  <cdx:fragmentId>
17

$$$$
