98120.cdx
  Mrv1902 05222410202D          

 21 22  0  0  0  0            999 V2000
    6.3113   -3.3696    0.0000 C   0  0  0  0  0  0  0  0  0  0  0  0
    5.5968   -2.9571    0.0000 C   0  0  0  0  0  0  0  0  0  0  0  0
    5.5968   -2.1321    0.0000 O   0  0  0  0  0  0  0  0  0  0  0  0
    4.8823   -3.3696    0.0000 C   0  0  0  0  0  0  0  0  0  0  0  0
    4.1678   -2.9571    0.0000 C   0  0  0  0  0  0  0  0  0  0  0  0
    3.4534   -3.3696    0.0000 C   0  0  0  0  0  0  0  0  0  0  0  0
    3.4534   -4.1946    0.0000 C   0  0  0  0  0  0  0  0  0  0  0  0
    4.1678   -4.6071    0.0000 C   0  0  0  0  0  0  0  0  0  0  0  0
    4.8823   -4.1946    0.0000 C   0  0  0  0  0  0  0  0  0  0  0  0
    7.0257   -2.9571    0.0000 C   0  0  0  0  0  0  0  0  0  0  0  0
    7.7402   -3.3696    0.0000 C   0  0  0  0  0  0  0  0  0  0  0  0
    8.4547   -2.9571    0.0000 C   0  0  0  0  0  0  0  0  0  0  0  0
    9.1691   -3.3696    0.0000 C   0  0  0  0  0  0  0  0  0  0  0  0
    9.1691   -4.1946    0.0000 C   0  0  0  0  0  0  0  0  0  0  0  0
    8.4547   -4.6071    0.0000 C   0  0  0  0  0  0  0  0  0  0  0  0
    7.7402   -4.1946    0.0000 C   0  0  0  0  0  0  0  0  0  0  0  0
    2.7389   -4.6071    0.0000 O   0  0  0  0  0  0  0  0  0  0  0  0
    2.0244   -4.1946    0.0000 C   0  0  0  0  0  0  0  0  0  0  0  0
    9.8836   -4.6071    0.0000 O   0  0  0  0  0  0  0  0  0  0  0  0
   10.5981   -4.1946    0.0000 C   0  0  0  0  0  0  0  0  0  0  0  0
    5.5968   -4.6071    0.0000 O   0  0  0  0  0  0  0  0  0  0  0  0
  1  2  1  0  0  0  0
  2  3  2  0  0  0  0
  2  4  1  0  0  0  0
  4  5  1  0  0  0  0
  5  6  2  0  0  0  0
  6  7  1  0  0  0  0
  7  8  2  0  0  0  0
  8  9  1  0  0  0  0
  4  9  2  0  0  0  0
  1 10  2  0  0  0  0
 10 11  1  0  0  0  0
 11 12  1  0  0  0  0
 12 13  2  0  0  0  0
 13 14  1  0  0  0  0
 14 15  2  0  0  0  0
 15 16  1  0  0  0  0
 11 16  2  0  0  0  0
 17 18  1  0  0  0  0
  7 17  1  0  0  0  0
 19 20  1  0  0  0  0
 14 19  1  0  0  0  0
  9 21  1  0  0  0  0
M  END
>  <cdx:groupId>
66

>  <cdx:fragmentId>
5

$$$$
