98123.cdx
  Mrv1902 05222410192D          

  7  8  0  0  0  0            999 V2000
    7.5460   -8.8688    0.0000 C   0  0  0  0  0  0  0  0  0  0  0  0
    6.8315   -9.2813    0.0000 C   0  0  0  0  0  0  0  0  0  0  0  0
    6.1171   -8.8688    0.0000 C   0  0  0  0  0  0  0  0  0  0  0  0
    6.1171   -8.0437    0.0000 C   0  0  0  0  0  0  0  0  0  0  0  0
    6.8315   -7.6313    0.0000 C   0  0  0  0  0  0  0  0  0  0  0  0
    7.5460   -8.0437    0.0000 C   0  0  0  0  0  0  0  0  0  0  0  0
    8.2605   -8.4563    0.0000 C   0  0  0  0  0  0  0  0  0  0  0  0
  1  2  1  0  0  0  0
  2  3  1  0  0  0  0
  3  4  2  0  0  0  0
  4  5  1  0  0  0  0
  5  6  1  0  0  0  0
  6  7  1  0  0  0  0
  1  7  1  0  0  0  0
  1  6  1  0  0  0  0
M  END
>  <cdx:fragmentId>
5

$$$$
