9812.cdx
  Mrv1902 05222410192D          

 17 18  0  0  0  0            999 V2000
    7.5885   -9.7900    0.0000 C   0  0  0  0  0  0  0  0  0  0  0  0
    8.3030   -6.9025    0.0000 C   0  0  0  0  0  0  0  0  0  0  0  0
    7.5885   -8.1400    0.0000 C   0  0  0  0  0  0  0  0  0  0  0  0
    8.3030   -7.7275    0.0000 C   0  0  0  0  0  0  0  0  0  0  0  0
    9.0175   -8.1400    0.0000 C   0  0  0  0  0  0  0  0  0  0  0  0
    9.0175   -8.9650    0.0000 C   0  0  0  0  0  0  0  0  0  0  0  0
    8.3030   -9.3775    0.0000 C   0  0  0  0  0  0  0  0  0  0  0  0
    7.5885   -8.9650    0.0000 C   0  0  1  0  0  0  0  0  0  0  0  0
    6.8740   -9.3775    0.0000 C   0  0  0  0  0  0  0  0  0  0  0  0
    6.1596   -8.9650    0.0000 C   0  0  0  0  0  0  0  0  0  0  0  0
    6.1596   -8.1400    0.0000 C   0  0  2  0  0  0  0  0  0  0  0  0
    6.8740   -7.7275    0.0000 C   0  0  0  0  0  0  0  0  0  0  0  0
    4.7306   -7.3150    0.0000 O   0  0  0  0  0  0  0  0  0  0  0  0
    5.4451   -7.7275    0.0000 C   0  0  0  0  0  0  0  0  0  0  0  0
    5.8576   -7.0130    0.0000 C   0  0  0  0  0  0  0  0  0  0  0  0
    5.0326   -8.4420    0.0000 C   0  0  0  0  0  0  0  0  0  0  0  0
    6.1596   -7.3150    0.0000 H   0  0  0  0  0  0  0  0  0  0  0  0
 11 14  1  0  0  0  0
  8  1  1  1  0  0  0
  4  2  1  0  0  0  0
  8  3  1  0  0  0  0
 12  3  1  0  0  0  0
  4  3  2  0  0  0  0
  5  4  1  0  0  0  0
  6  5  1  0  0  0  0
  7  6  1  0  0  0  0
  8  7  1  0  0  0  0
  9  8  1  0  0  0  0
 10  9  1  0  0  0  0
 11 10  1  0  0  0  0
 12 11  1  0  0  0  0
 14 13  1  0  0  0  0
 14 15  1  0  0  0  0
 14 16  1  0  0  0  0
 11 17  1  6  0  0  0
M  END
>  <cdx:fragmentId>
13

$$$$
