98127.cdx
  Mrv1902 05222410182D          

 15 16  0  0  0  0            999 V2000
    6.3232   -7.3796    0.0000 C   0  0  1  0  0  0  0  0  0  0  0  0
    5.9714   -8.1258    0.0000 C   0  0  0  0  0  0  0  0  0  0  0  0
    6.3354   -8.8662    0.0000 C   0  0  0  0  0  0  0  0  0  0  0  0
    7.1412   -9.0432    0.0000 C   0  0  0  0  0  0  0  0  0  0  0  0
    7.7820   -8.5235    0.0000 C   0  0  0  0  0  0  0  0  0  0  0  0
    7.7752   -7.6986    0.0000 C   0  0  0  0  0  0  0  0  0  0  0  0
    7.1260   -7.1895    0.0000 C   0  0  0  0  0  0  0  0  0  0  0  0
    8.5686   -8.7720    0.0000 C   0  0  0  0  0  0  0  0  0  0  0  0
    9.0481   -8.1007    0.0000 C   0  0  0  0  0  0  0  0  0  0  0  0
    8.5577   -7.4372    0.0000 C   0  0  1  0  0  0  0  0  0  0  0  0
    8.8062   -6.6505    0.0000 C   0  0  0  0  0  0  0  0  0  0  0  0
    5.8036   -6.7388    0.0000 C   0  0  0  0  0  0  0  0  0  0  0  0
    4.9888   -6.8684    0.0000 C   0  0  0  0  0  0  0  0  0  0  0  0
    6.0987   -5.9684    0.0000 C   0  0  0  0  0  0  0  0  0  0  0  0
    7.3313   -9.8459    0.0000 C   0  0  0  0  0  0  0  0  0  0  0  0
  1  2  1  0  0  0  0
  2  3  1  0  0  0  0
  3  4  1  0  0  0  0
  4  5  2  0  0  0  0
  5  6  1  0  0  0  0
  6  7  1  0  0  0  0
  7  1  1  0  0  0  0
  5  8  1  0  0  0  0
  8  9  1  0  0  0  0
  9 10  1  0  0  0  0
 10  6  1  0  0  0  0
 10 11  1  6  0  0  0
  1 12  1  6  0  0  0
 12 13  2  0  0  0  0
 12 14  1  0  0  0  0
  4 15  1  0  0  0  0
M  END
>  <cdx:fragmentId>
5

$$$$
