98129.cdx
  Mrv1902 05222410282D          

 15 17  0  0  0  0            999 V2000
    8.5665   -7.7283    0.0000 C   0  0  0  0  0  0  0  0  0  0  0  0
    9.1185   -8.3414    0.0000 N   0  0  0  0  0  0  0  0  0  0  0  0
    8.8636   -9.1260    0.0000 C   0  0  0  0  0  0  0  0  0  0  0  0
    8.0566   -9.2976    0.0000 C   0  0  0  0  0  0  0  0  0  0  0  0
    7.5046   -8.6845    0.0000 C   0  0  0  0  0  0  0  0  0  0  0  0
    6.6796   -8.6845    0.0000 C   0  0  0  0  0  0  0  0  0  0  0  0
    6.1275   -9.2976    0.0000 C   0  0  0  0  0  0  0  0  0  0  0  0
    5.3206   -9.1260    0.0000 C   0  0  0  0  0  0  0  0  0  0  0  0
    5.0656   -8.3414    0.0000 C   0  0  0  0  0  0  0  0  0  0  0  0
    5.6176   -7.7283    0.0000 C   0  0  0  0  0  0  0  0  0  0  0  0
    6.4246   -7.8998    0.0000 C   0  0  0  0  0  0  0  0  0  0  0  0
    7.0921   -7.4149    0.0000 N   0  0  0  0  0  0  0  0  0  0  0  0
    7.7595   -7.8998    0.0000 C   0  0  0  0  0  0  0  0  0  0  0  0
    4.7685   -9.7391    0.0000 O   0  0  0  0  0  0  0  0  0  0  0  0
    9.9255   -8.1699    0.0000 C   0  0  0  0  0  0  0  0  0  0  0  0
  1  2  1  0  0  0  0
  2  3  1  0  0  0  0
  3  4  1  0  0  0  0
  4  5  1  0  0  0  0
  5  6  1  0  0  0  0
  6  7  1  0  0  0  0
  7  8  2  0  0  0  0
  8  9  1  0  0  0  0
  9 10  2  0  0  0  0
 10 11  1  0  0  0  0
  6 11  2  0  0  0  0
 11 12  1  0  0  0  0
 12 13  1  0  0  0  0
  5 13  2  0  0  0  0
  1 13  1  0  0  0  0
  8 14  1  0  0  0  0
  2 15  1  0  0  0  0
M  END
>  <cdx:fragmentId>
5

$$$$
