98122.cdx
  Mrv1902 05222410192D          

 19 18  0  0  0  0            999 V2000
    7.9101  -12.8636    0.0000 Na  0  3  0  0  0  0  0  0  0  0  0  0
    7.1956  -10.8011    0.0000 C   0  0  0  0  0  0  0  0  0  0  0  0
    7.9101  -10.3886    0.0000 C   0  0  0  0  0  0  0  0  0  0  0  0
    7.9101   -9.5636    0.0000 C   0  0  0  0  0  0  0  0  0  0  0  0
    7.1956   -9.1511    0.0000 C   0  0  0  0  0  0  0  0  0  0  0  0
    6.4812   -9.5636    0.0000 C   0  0  0  0  0  0  0  0  0  0  0  0
    6.4812  -10.3886    0.0000 C   0  0  0  0  0  0  0  0  0  0  0  0
    7.1956  -11.6261    0.0000 S   0  0  0  0  0  0  0  0  0  0  0  0
    6.3706  -11.6261    0.0000 O   0  0  0  0  0  0  0  0  0  0  0  0
    8.0206  -11.6261    0.0000 O   0  0  0  0  0  0  0  0  0  0  0  0
    7.1956  -12.4511    0.0000 O   0  5  0  0  0  0  0  0  0  0  0  0
    5.7667   -9.1511    0.0000 C   0  0  0  0  0  0  0  0  0  0  0  0
    5.7667   -8.3261    0.0000 O   0  0  0  0  0  0  0  0  0  0  0  0
    5.0522   -9.5636    0.0000 O   0  0  0  0  0  0  0  0  0  0  0  0
    4.3378   -9.1511    0.0000 C   0  0  0  0  0  0  0  0  0  0  0  0
    8.6246   -9.1511    0.0000 C   0  0  0  0  0  0  0  0  0  0  0  0
    8.6246   -8.3261    0.0000 O   0  0  0  0  0  0  0  0  0  0  0  0
    9.3391   -9.5636    0.0000 O   0  0  0  0  0  0  0  0  0  0  0  0
   10.0535   -9.1511    0.0000 C   0  0  0  0  0  0  0  0  0  0  0  0
  2  3  1  0  0  0  0
  3  4  2  0  0  0  0
  4  5  1  0  0  0  0
  5  6  2  0  0  0  0
  6  7  1  0  0  0  0
  2  7  2  0  0  0  0
  8  9  2  0  0  0  0
  8 10  2  0  0  0  0
  8 11  1  0  0  0  0
  2  8  1  0  0  0  0
 12 13  2  0  0  0  0
 14 15  1  0  0  0  0
 12 14  1  0  0  0  0
  6 12  1  0  0  0  0
 16 17  2  0  0  0  0
 18 19  1  0  0  0  0
 16 18  1  0  0  0  0
  4 16  1  0  0  0  0
M  CHG  2   1   1  11  -1
M  END
>  <cdx:groupId>
58

>  <cdx:fragmentId>
7

$$$$
