98128.cdx
  Mrv1902 05222410282D          

 12 13  0  0  0  0            999 V2000
    7.7462   -7.3144    0.0000 C   0  0  1  0  0  0  0  0  0  0  0  0
    6.9863   -7.6354    0.0000 C   0  0  1  0  0  0  0  0  0  0  0  0
    7.0567   -8.4574    0.0000 C   0  0  1  0  0  0  0  0  0  0  0  0
    7.8602   -8.6444    0.0000 C   0  0  0  0  0  0  0  0  0  0  0  0
    8.2864   -7.9379    0.0000 C   0  0  0  0  0  0  0  0  0  0  0  0
    6.3096   -8.1074    0.0000 C   0  0  0  0  0  0  0  0  0  0  0  0
    6.7867   -9.2369    0.0000 C   0  0  0  0  0  0  0  0  0  0  0  0
    7.3269   -9.8605    0.0000 C   0  0  0  0  0  0  0  0  0  0  0  0
    5.9766   -9.3929    0.0000 C   0  0  0  0  0  0  0  0  0  0  0  0
    7.3337   -6.5999    0.0000 C   0  0  0  0  0  0  0  0  0  0  0  0
    8.1587   -6.5999    0.0000 O   0  0  0  0  0  0  0  0  0  0  0  0
    6.5738   -6.9209    0.0000 H   0  0  0  0  0  0  0  0  0  0  0  0
  1  2  1  0  0  0  0
  2  3  1  0  0  0  0
  3  4  1  0  0  0  0
  4  5  1  0  0  0  0
  5  1  1  0  0  0  0
  2  6  1  0  0  0  0
  6  3  1  0  0  0  0
  3  7  1  6  0  0  0
  7  8  1  0  0  0  0
  7  9  1  0  0  0  0
  1 10  1  6  0  0  0
  1 11  1  1  0  0  0
  2 12  1  6  0  0  0
M  END
>  <cdx:fragmentId>
5

$$$$
