98147.cdx
  Mrv1902 05222410202D          

 40 43  0  0  0  0            999 V2000
    9.3557   -7.8185    0.0000 C   0  0  1  0  0  0  0  0  0  0  0  0
   10.0702   -7.4060    0.0000 C   0  0  1  0  0  0  0  0  0  0  0  0
   10.0702   -6.5810    0.0000 C   0  0  1  0  0  0  0  0  0  0  0  0
    9.3557   -6.1685    0.0000 C   0  0  0  0  0  0  0  0  0  0  0  0
    8.6413   -6.5810    0.0000 C   0  0  0  0  0  0  0  0  0  0  0  0
    8.6413   -7.4060    0.0000 O   0  0  0  0  0  0  0  0  0  0  0  0
   10.8548   -6.3260    0.0000 C   0  0  1  0  0  0  0  0  0  0  0  0
   11.3397   -6.9935    0.0000 C   0  0  0  0  0  0  0  0  0  0  0  0
   10.8548   -7.6609    0.0000 C   0  0  1  0  0  0  0  0  0  0  0  0
    9.3557   -5.3435    0.0000 C   0  0  0  0  0  0  0  0  0  0  0  0
   10.0702   -4.9310    0.0000 O   0  0  0  0  0  0  0  0  0  0  0  0
    8.6413   -4.9310    0.0000 O   0  0  0  0  0  0  0  0  0  0  0  0
    9.3557   -8.6435    0.0000 O   0  0  0  0  0  0  0  0  0  0  0  0
    7.9268   -8.6435    0.0000 O   0  0  0  0  0  0  0  0  0  0  0  0
    8.6413   -9.0560    0.0000 C   0  0  2  0  0  0  0  0  0  0  0  0
    8.6413   -9.8810    0.0000 C   0  0  1  0  0  0  0  0  0  0  0  0
    7.9268  -10.2935    0.0000 C   0  0  2  0  0  0  0  0  0  0  0  0
    7.2123   -9.8810    0.0000 C   0  0  1  0  0  0  0  0  0  0  0  0
    7.2123   -9.0560    0.0000 C   0  0  1  0  0  0  0  0  0  0  0  0
    6.4978   -8.6435    0.0000 C   0  0  0  0  0  0  0  0  0  0  0  0
    5.7834   -9.0560    0.0000 O   0  0  0  0  0  0  0  0  0  0  0  0
    6.4978  -10.2935    0.0000 O   0  0  0  0  0  0  0  0  0  0  0  0
    7.9268  -11.1185    0.0000 O   0  0  0  0  0  0  0  0  0  0  0  0
    9.3557  -10.2935    0.0000 O   0  0  0  0  0  0  0  0  0  0  0  0
   10.6833   -8.4679    0.0000 C   0  0  0  0  0  0  0  0  0  0  0  0
   11.4679   -8.2130    0.0000 O   0  0  0  0  0  0  0  0  0  0  0  0
   11.1098   -5.5414    0.0000 O   0  0  0  0  0  0  0  0  0  0  0  0
   10.1564   -5.7605    0.0000 H   0  0  0  0  0  0  0  0  0  0  0  0
   10.1564   -8.2265    0.0000 H   0  0  0  0  0  0  0  0  0  0  0  0
    5.0704   -7.8233    0.0000 O   0  0  0  0  0  0  0  0  0  0  0  0
    5.0690   -8.6483    0.0000 C   0  0  2  0  0  0  0  0  0  0  0  0
    4.3538   -9.0595    0.0000 C   0  0  1  0  0  0  0  0  0  0  0  0
    3.6400   -8.6458    0.0000 C   0  0  2  0  0  0  0  0  0  0  0  0
    3.6415   -7.8208    0.0000 C   0  0  1  0  0  0  0  0  0  0  0  0
    4.3567   -7.4095    0.0000 C   0  0  1  0  0  0  0  0  0  0  0  0
    4.3581   -6.5845    0.0000 C   0  0  0  0  0  0  0  0  0  0  0  0
    3.6443   -6.1708    0.0000 O   0  0  0  0  0  0  0  0  0  0  0  0
    2.9277   -7.4070    0.0000 O   0  0  0  0  0  0  0  0  0  0  0  0
    2.9248   -9.0570    0.0000 O   0  0  0  0  0  0  0  0  0  0  0  0
    4.3523   -9.8845    0.0000 O   0  0  0  0  0  0  0  0  0  0  0  0
  1  2  1  0  0  0  0
  2  3  1  0  0  0  0
  3  4  1  0  0  0  0
  4  5  2  0  0  0  0
  5  6  1  0  0  0  0
  1  6  1  0  0  0  0
  7  8  1  0  0  0  0
  8  9  1  0  0  0  0
  9  2  1  0  0  0  0
  7  3  1  0  0  0  0
 10 11  2  0  0  0  0
 10 12  1  0  0  0  0
  4 10  1  0  0  0  0
 14 15  1  0  0  0  0
 15 16  1  0  0  0  0
 16 17  1  0  0  0  0
 17 18  1  0  0  0  0
 18 19  1  0  0  0  0
 14 19  1  0  0  0  0
 20 21  1  0  0  0  0
 19 20  1  1  0  0  0
 18 22  1  6  0  0  0
 17 23  1  1  0  0  0
 16 24  1  6  0  0  0
 15 13  1  1  0  0  0
  1 13  1  6  0  0  0
  9 25  1  1  0  0  0
  9 26  1  6  0  0  0
  7 27  1  6  0  0  0
  3 28  1  6  0  0  0
  2 29  1  6  0  0  0
 30 31  1  0  0  0  0
 31 32  1  0  0  0  0
 32 33  1  0  0  0  0
 33 34  1  0  0  0  0
 34 35  1  0  0  0  0
 30 35  1  0  0  0  0
 36 37  1  0  0  0  0
 35 36  1  1  0  0  0
 34 38  1  6  0  0  0
 33 39  1  1  0  0  0
 32 40  1  6  0  0  0
 31 21  1  1  0  0  0
M  END
>  <cdx:fragmentId>
5

$$$$
