98145.cdx
  Mrv1902 05222410212D          

 15 15  0  0  0  0            999 V2000
    5.4437   -8.6107    0.0000 C   0  0  0  0  0  0  0  0  0  0  0  0
    6.1582   -9.0232    0.0000 C   0  0  0  0  0  0  0  0  0  0  0  0
    6.8726   -8.6107    0.0000 C   0  0  0  0  0  0  0  0  0  0  0  0
    7.5871   -9.0232    0.0000 C   0  0  0  0  0  0  0  0  0  0  0  0
    4.7292   -9.0232    0.0000 O   0  0  0  0  0  0  0  0  0  0  0  0
    8.3016   -8.6107    0.0000 C   0  0  0  0  0  0  0  0  0  0  0  0
    9.0161   -9.0232    0.0000 C   0  0  0  0  0  0  0  0  0  0  0  0
    9.7305   -8.6107    0.0000 C   0  0  0  0  0  0  0  0  0  0  0  0
    9.7305   -7.7857    0.0000 C   0  0  0  0  0  0  0  0  0  0  0  0
    9.0161   -7.3732    0.0000 C   0  0  0  0  0  0  0  0  0  0  0  0
    8.3016   -7.7857    0.0000 C   0  0  0  0  0  0  0  0  0  0  0  0
    7.4766   -7.7857    0.0000 C   0  0  0  0  0  0  0  0  0  0  0  0
    7.8891   -7.0712    0.0000 C   0  0  0  0  0  0  0  0  0  0  0  0
    9.0161   -9.8482    0.0000 C   0  0  0  0  0  0  0  0  0  0  0  0
    6.1582   -9.8482    0.0000 C   0  0  0  0  0  0  0  0  0  0  0  0
  1  2  1  0  0  0  0
  2  3  2  0  0  0  0
  3  4  1  0  0  0  0
  1  5  2  0  0  0  0
  6  7  2  0  0  0  0
  7  8  1  0  0  0  0
  8  9  1  0  0  0  0
  9 10  1  0  0  0  0
 10 11  1  0  0  0  0
  6 11  1  0  0  0  0
 11 12  1  0  0  0  0
 11 13  1  0  0  0  0
  7 14  1  0  0  0  0
  4  6  1  0  0  0  0
  2 15  1  0  0  0  0
M  END
>  <cdx:fragmentId>
15

$$$$
