98146.cdx
  Mrv1902 05222410212D          

 41 45  0  0  0  0            999 V2000
   10.5078   -8.3547    0.0000 C   0  0  0  0  0  0  0  0  0  0  0  0
   10.5078   -9.1797    0.0000 C   0  0  0  0  0  0  0  0  0  0  0  0
    9.7933   -9.5922    0.0000 C   0  0  0  0  0  0  0  0  0  0  0  0
    9.7933  -10.4172    0.0000 O   0  0  0  0  0  0  0  0  0  0  0  0
    9.0789   -9.1797    0.0000 C   0  0  0  0  0  0  0  0  0  0  0  0
    8.3644   -9.5922    0.0000 C   0  0  0  0  0  0  0  0  0  0  0  0
    8.3644  -10.4172    0.0000 O   0  0  0  0  0  0  0  0  0  0  0  0
    7.6499   -9.1797    0.0000 C   0  0  0  0  0  0  0  0  0  0  0  0
    7.6499   -8.3547    0.0000 C   0  0  0  0  0  0  0  0  0  0  0  0
    8.3644   -7.9422    0.0000 C   0  0  0  0  0  0  0  0  0  0  0  0
    9.0789   -8.3547    0.0000 C   0  0  0  0  0  0  0  0  0  0  0  0
    9.7933   -7.9422    0.0000 O   0  0  0  0  0  0  0  0  0  0  0  0
   11.2223   -7.9422    0.0000 C   0  0  0  0  0  0  0  0  0  0  0  0
   11.9368   -8.3547    0.0000 C   0  0  0  0  0  0  0  0  0  0  0  0
   12.6512   -7.9422    0.0000 C   0  0  0  0  0  0  0  0  0  0  0  0
   13.3657   -8.3547    0.0000 O   0  0  0  0  0  0  0  0  0  0  0  0
   12.6512   -7.1172    0.0000 C   0  0  0  0  0  0  0  0  0  0  0  0
   13.3657   -6.7047    0.0000 O   0  0  0  0  0  0  0  0  0  0  0  0
   11.9368   -6.7047    0.0000 C   0  0  0  0  0  0  0  0  0  0  0  0
   11.2223   -7.1172    0.0000 C   0  0  0  0  0  0  0  0  0  0  0  0
    6.9355   -7.9422    0.0000 O   0  0  0  0  0  0  0  0  0  0  0  0
    6.2210   -8.3547    0.0000 C   0  0  1  0  0  0  0  0  0  0  0  0
    6.2210   -9.1797    0.0000 C   0  0  2  0  0  0  0  0  0  0  0  0
    6.9355   -9.5922    0.0000 O   0  0  0  0  0  0  0  0  0  0  0  0
    5.5065   -9.5922    0.0000 C   0  0  1  0  0  0  0  0  0  0  0  0
    5.5065  -10.4172    0.0000 O   0  0  0  0  0  0  0  0  0  0  0  0
    4.7920   -9.1797    0.0000 C   0  0  2  0  0  0  0  0  0  0  0  0
    4.0776   -9.5922    0.0000 O   0  0  0  0  0  0  0  0  0  0  0  0
    4.7920   -8.3547    0.0000 C   0  0  2  0  0  0  0  0  0  0  0  0
    5.5065   -7.9422    0.0000 O   0  0  0  0  0  0  0  0  0  0  0  0
    4.0776   -7.9422    0.0000 C   0  0  0  0  0  0  0  0  0  0  0  0
    3.3631   -8.3547    0.0000 O   0  0  0  0  0  0  0  0  0  0  0  0
    2.4531   -6.4316    0.0000 C   0  0  0  0  0  0  0  0  0  0  0  0
    1.7873   -6.9188    0.0000 C   0  0  2  0  0  0  0  0  0  0  0  0
    2.0448   -7.7025    0.0000 C   0  0  2  0  0  0  0  0  0  0  0  0
    2.8698   -7.6998    0.0000 C   0  0  1  0  0  0  0  0  0  0  0  0
    3.1221   -6.9143    0.0000 O   0  0  0  0  0  0  0  0  0  0  0  0
    1.5621   -8.3716    0.0000 O   0  0  0  0  0  0  0  0  0  0  0  0
    1.0181   -7.2170    0.0000 O   0  0  0  0  0  0  0  0  0  0  0  0
    1.1444   -6.4017    0.0000 C   0  0  0  0  0  0  0  0  0  0  0  0
    1.2708   -5.5864    0.0000 O   0  0  0  0  0  0  0  0  0  0  0  0
  1  2  2  0  0  0  0
  2  3  1  0  0  0  0
  3  4  2  0  0  0  0
  3  5  1  0  0  0  0
  5  6  1  0  0  0  0
  6  7  1  0  0  0  0
  6  8  2  0  0  0  0
  8  9  1  0  0  0  0
  9 10  2  0  0  0  0
 10 11  1  0  0  0  0
  5 11  2  0  0  0  0
 11 12  1  0  0  0  0
  1 12  1  0  0  0  0
  1 13  1  0  0  0  0
 13 14  1  0  0  0  0
 14 15  2  0  0  0  0
 15 16  1  0  0  0  0
 15 17  1  0  0  0  0
 17 18  1  0  0  0  0
 17 19  2  0  0  0  0
 19 20  1  0  0  0  0
 13 20  2  0  0  0  0
 22 21  1  1  0  0  0
 22 23  1  0  0  0  0
 23 24  1  6  0  0  0
 23 25  1  0  0  0  0
 25 26  1  1  0  0  0
 25 27  1  0  0  0  0
 27 28  1  6  0  0  0
 27 29  1  0  0  0  0
 29 30  1  0  0  0  0
 29 31  1  1  0  0  0
 31 32  1  0  0  0  0
 22 30  1  0  0  0  0
  9 21  1  0  0  0  0
 33 34  1  0  0  0  0
 34 35  1  0  0  0  0
 35 36  1  0  0  0  0
 36 37  1  0  0  0  0
 37 33  1  0  0  0  0
 35 38  1  6  0  0  0
 34 39  1  6  0  0  0
 34 40  1  0  0  0  0
 40 41  1  0  0  0  0
 36 32  1  1  0  0  0
M  END
>  <cdx:fragmentId>
5

$$$$
