98148.cdx
  Mrv1902 05222410242D          

 16 17  0  0  0  0            999 V2000
    7.5009  -10.4239    0.0000 O   0  0  0  0  0  0  0  0  0  0  0  0
    7.2460   -9.6393    0.0000 C   0  0  0  0  0  0  0  0  0  0  0  0
    7.7309   -8.9718    0.0000 O   0  0  0  0  0  0  0  0  0  0  0  0
    7.2460   -8.3044    0.0000 C   0  0  2  0  0  0  0  0  0  0  0  0
    6.4613   -8.5593    0.0000 C   0  0  2  0  0  0  0  0  0  0  0  0
    5.7469   -8.1468    0.0000 C   0  0  0  0  0  0  0  0  0  0  0  0
    5.0324   -8.5593    0.0000 C   0  0  0  0  0  0  0  0  0  0  0  0
    5.0324   -9.3843    0.0000 C   0  0  0  0  0  0  0  0  0  0  0  0
    5.7469   -9.7968    0.0000 C   0  0  0  0  0  0  0  0  0  0  0  0
    6.4613   -9.3843    0.0000 C   0  0  2  0  0  0  0  0  0  0  0  0
    7.5009   -7.5198    0.0000 C   0  0  0  0  0  0  0  0  0  0  0  0
    8.3079   -7.3482    0.0000 C   0  0  0  0  0  0  0  0  0  0  0  0
    8.5628   -6.5636    0.0000 C   0  0  0  0  0  0  0  0  0  0  0  0
    9.3698   -6.3921    0.0000 C   0  0  0  0  0  0  0  0  0  0  0  0
    6.5476   -7.7388    0.0000 H   0  0  0  0  0  0  0  0  0  0  0  0
    6.5476  -10.2048    0.0000 H   0  0  0  0  0  0  0  0  0  0  0  0
  1  2  2  0  0  0  0
  2  3  1  0  0  0  0
  3  4  1  0  0  0  0
  4  5  1  0  0  0  0
  5  6  1  0  0  0  0
  6  7  1  0  0  0  0
  7  8  1  0  0  0  0
  8  9  1  0  0  0  0
  9 10  1  0  0  0  0
  2 10  1  0  0  0  0
  5 10  1  0  0  0  0
 11 12  1  0  0  0  0
 12 13  1  0  0  0  0
 13 14  1  0  0  0  0
  4 11  1  6  0  0  0
  5 15  1  6  0  0  0
 10 16  1  6  0  0  0
M  END
>  <cdx:fragmentId>
5

$$$$
