98149.cdx
  Mrv1902 05222410252D          

 49 52  0  0  0  0            999 V2000
    4.7481  -10.1343    0.0000 C   0  0  0  0  0  0  0  0  0  0  0  0
    4.3356  -10.8488    0.0000 C   0  0  0  0  0  0  0  0  0  0  0  0
    4.7481  -11.5632    0.0000 C   0  0  0  0  0  0  0  0  0  0  0  0
    5.5731  -11.5632    0.0000 C   0  0  0  0  0  0  0  0  0  0  0  0
    5.9856  -10.8488    0.0000 C   0  0  0  0  0  0  0  0  0  0  0  0
    5.5731  -10.1343    0.0000 C   0  0  0  0  0  0  0  0  0  0  0  0
    4.3356   -9.4198    0.0000 O   0  0  0  0  0  0  0  0  0  0  0  0
    3.5106   -9.4198    0.0000 C   0  0  0  0  0  0  0  0  0  0  0  0
    3.5106  -10.8488    0.0000 O   0  0  0  0  0  0  0  0  0  0  0  0
    3.0981  -11.5632    0.0000 C   0  0  0  0  0  0  0  0  0  0  0  0
    4.3356  -12.2777    0.0000 O   0  0  0  0  0  0  0  0  0  0  0  0
    6.8106  -10.8488    0.0000 C   0  0  0  0  0  0  0  0  0  0  0  0
    7.2231  -10.1343    0.0000 C   0  0  0  0  0  0  0  0  0  0  0  0
    8.4606  -10.8488    0.0000 O   0  0  0  0  0  0  0  0  0  0  0  0
    8.0481  -10.1343    0.0000 C   0  0  0  0  0  0  0  0  0  0  0  0
    4.7481  -12.9922    0.0000 C   0  0  0  0  0  0  0  0  0  0  0  0
    8.4606   -9.4198    0.0000 O   0  0  0  0  0  0  0  0  0  0  0  0
    9.0440   -8.8364    0.0000 C   0  0  1  0  0  0  0  0  0  0  0  0
    9.8689   -8.8248    0.0000 C   0  0  1  0  0  0  0  0  0  0  0  0
   10.1127   -8.0366    0.0000 C   0  0  2  0  0  0  0  0  0  0  0  0
    9.4385   -7.5612    0.0000 O   0  0  0  0  0  0  0  0  0  0  0  0
    8.7780   -8.0555    0.0000 C   0  0  2  0  0  0  0  0  0  0  0  0
   10.3633   -9.4853    0.0000 O   0  0  0  0  0  0  0  0  0  0  0  0
    8.3655   -7.3410    0.0000 C   0  0  0  0  0  0  0  0  0  0  0  0
    8.0635   -8.4680    0.0000 O   0  0  0  0  0  0  0  0  0  0  0  0
    7.3490   -8.0555    0.0000 C   0  0  1  0  0  0  0  0  0  0  0  0
    7.3490   -7.2305    0.0000 O   0  0  0  0  0  0  0  0  0  0  0  0
    6.6346   -6.8180    0.0000 C   0  0  1  0  0  0  0  0  0  0  0  0
    5.9201   -7.2305    0.0000 C   0  0  2  0  0  0  0  0  0  0  0  0
    5.9201   -8.0555    0.0000 C   0  0  1  0  0  0  0  0  0  0  0  0
    6.6346   -8.4680    0.0000 C   0  0  1  0  0  0  0  0  0  0  0  0
    5.2056   -6.8180    0.0000 O   0  0  0  0  0  0  0  0  0  0  0  0
    6.6346   -9.2930    0.0000 O   0  0  0  0  0  0  0  0  0  0  0  0
    6.6346   -5.9930    0.0000 C   0  0  0  0  0  0  0  0  0  0  0  0
    5.2056   -8.4680    0.0000 O   0  0  0  0  0  0  0  0  0  0  0  0
   10.8937   -7.7706    0.0000 C   0  0  0  0  0  0  0  0  0  0  0  0
   11.5145   -8.3139    0.0000 O   0  0  0  0  0  0  0  0  0  0  0  0
    8.7780   -6.6266    0.0000 O   0  0  0  0  0  0  0  0  0  0  0  0
    5.9201   -5.5805    0.0000 O   0  0  0  0  0  0  0  0  0  0  0  0
    6.1336   -4.7836    0.0000 C   0  0  0  0  0  0  0  0  0  0  0  0
    6.9586   -4.7836    0.0000 C   0  0  0  0  0  0  0  0  0  0  0  0
    5.6314   -4.1291    0.0000 O   0  0  0  0  0  0  0  0  0  0  0  0
    7.3711   -5.4981    0.0000 C   0  0  0  0  0  0  0  0  0  0  0  0
    8.1961   -5.4981    0.0000 C   0  0  0  0  0  0  0  0  0  0  0  0
    8.6086   -4.7836    0.0000 C   0  0  0  0  0  0  0  0  0  0  0  0
    8.1961   -4.0692    0.0000 C   0  0  0  0  0  0  0  0  0  0  0  0
    7.3711   -4.0692    0.0000 C   0  0  0  0  0  0  0  0  0  0  0  0
    9.4336   -4.7836    0.0000 O   0  0  0  0  0  0  0  0  0  0  0  0
    9.8461   -4.0692    0.0000 C   0  0  0  0  0  0  0  0  0  0  0  0
  1  2  2  0  0  0  0
  2  3  1  0  0  0  0
  3  4  2  0  0  0  0
  4  5  1  0  0  0  0
  5  6  2  0  0  0  0
  6  1  1  0  0  0  0
  1  7  1  0  0  0  0
  7  8  1  0  0  0  0
  9  2  1  0  0  0  0
  9 10  1  0  0  0  0
 11  3  1  0  0  0  0
  5 12  1  0  0  0  0
 12 13  2  0  0  0  0
 14 15  2  0  0  0  0
 15 13  1  0  0  0  0
 11 16  1  0  0  0  0
 15 17  1  0  0  0  0
 18 17  1  6  0  0  0
 18 19  1  0  0  0  0
 19 20  1  0  0  0  0
 20 21  1  0  0  0  0
 21 22  1  0  0  0  0
 22 18  1  0  0  0  0
 19 23  1  1  0  0  0
 22 24  1  1  0  0  0
 22 25  1  6  0  0  0
 26 25  1  6  0  0  0
 26 27  1  0  0  0  0
 27 28  1  0  0  0  0
 28 29  1  0  0  0  0
 29 30  1  0  0  0  0
 30 31  1  0  0  0  0
 31 26  1  0  0  0  0
 29 32  1  6  0  0  0
 31 33  1  6  0  0  0
 28 34  1  1  0  0  0
 30 35  1  1  0  0  0
 20 36  1  6  0  0  0
 36 37  1  0  0  0  0
 24 38  1  0  0  0  0
 34 39  1  0  0  0  0
 39 40  1  0  0  0  0
 40 41  1  0  0  0  0
 40 42  2  0  0  0  0
 41 43  2  0  0  0  0
 43 44  1  0  0  0  0
 44 45  2  0  0  0  0
 45 46  1  0  0  0  0
 46 47  2  0  0  0  0
 47 41  1  0  0  0  0
 45 48  1  0  0  0  0
 48 49  1  0  0  0  0
M  END
>  <cdx:fragmentId>
5

$$$$
