98144.cdx
  Mrv1902 05222410212D          

 23 25  0  0  0  0            999 V2000
    7.5529   -8.2500    0.0000 C   0  0  1  0  0  0  0  0  0  0  0  0
    6.8384   -8.6625    0.0000 C   0  0  0  0  0  0  0  0  0  0  0  0
    6.1239   -8.2500    0.0000 C   0  0  0  0  0  0  0  0  0  0  0  0
    5.4095   -8.6625    0.0000 C   0  0  0  0  0  0  0  0  0  0  0  0
    4.6950   -8.2500    0.0000 C   0  0  0  0  0  0  0  0  0  0  0  0
    4.6950   -7.4250    0.0000 C   0  0  0  0  0  0  0  0  0  0  0  0
    5.4095   -7.0125    0.0000 C   0  0  0  0  0  0  0  0  0  0  0  0
    6.1239   -7.4250    0.0000 C   0  0  0  0  0  0  0  0  0  0  0  0
    6.8384   -7.0125    0.0000 O   0  0  0  0  0  0  0  0  0  0  0  0
    7.5529   -7.4250    0.0000 C   0  0  0  0  0  0  0  0  0  0  0  0
    8.2674   -8.6625    0.0000 C   0  0  0  0  0  0  0  0  0  0  0  0
    8.2674   -9.4875    0.0000 C   0  0  0  0  0  0  0  0  0  0  0  0
    8.9818   -9.9000    0.0000 C   0  0  0  0  0  0  0  0  0  0  0  0
    9.6963   -9.4875    0.0000 C   0  0  0  0  0  0  0  0  0  0  0  0
    9.6963   -8.6625    0.0000 C   0  0  0  0  0  0  0  0  0  0  0  0
    8.9818   -8.2500    0.0000 C   0  0  0  0  0  0  0  0  0  0  0  0
   10.4108   -9.9000    0.0000 O   0  0  0  0  0  0  0  0  0  0  0  0
    3.9805   -7.0125    0.0000 O   0  0  0  0  0  0  0  0  0  0  0  0
    5.4095   -6.1875    0.0000 O   0  0  0  0  0  0  0  0  0  0  0  0
   11.1252   -9.4875    0.0000 C   0  0  0  0  0  0  0  0  0  0  0  0
    8.9818   -7.4250    0.0000 O   0  0  0  0  0  0  0  0  0  0  0  0
    8.2674   -7.8375    0.0000 H   0  0  0  0  0  0  0  0  0  0  0  0
    3.2661   -7.4250    0.0000 C   0  0  0  0  0  0  0  0  0  0  0  0
  1  2  1  0  0  0  0
  2  3  1  0  0  0  0
  3  4  1  0  0  0  0
  4  5  2  0  0  0  0
  5  6  1  0  0  0  0
  6  7  2  0  0  0  0
  7  8  1  0  0  0  0
  3  8  2  0  0  0  0
  8  9  1  0  0  0  0
  9 10  1  0  0  0  0
  1 10  1  0  0  0  0
  1 11  1  0  0  0  0
 11 12  1  0  0  0  0
 12 13  2  0  0  0  0
 13 14  1  0  0  0  0
 14 15  2  0  0  0  0
 15 16  1  0  0  0  0
 11 16  2  0  0  0  0
 14 17  1  0  0  0  0
  6 18  1  0  0  0  0
  7 19  1  0  0  0  0
 17 20  1  0  0  0  0
 16 21  1  0  0  0  0
  1 22  1  6  0  0  0
 18 23  1  0  0  0  0
M  END
>  <cdx:fragmentId>
5

$$$$
