98150.cdx
  Mrv1902 05222410212D          

 32 34  0  0  0  0            999 V2000
    5.0787   -6.4900    0.0000 C   0  0  2  0  0  0  0  0  0  0  0  0
    5.0787   -7.3150    0.0000 C   0  0  2  0  0  0  0  0  0  0  0  0
    5.7931   -7.7275    0.0000 C   0  0  1  0  0  0  0  0  0  0  0  0
    6.5076   -7.3150    0.0000 C   0  0  2  0  0  0  0  0  0  0  0  0
    6.5076   -6.4900    0.0000 C   0  0  1  0  0  0  0  0  0  0  0  0
    5.7931   -6.0775    0.0000 O   0  0  0  0  0  0  0  0  0  0  0  0
    4.3642   -6.0775    0.0000 C   0  0  0  0  0  0  0  0  0  0  0  0
    7.2221   -6.0775    0.0000 O   0  0  0  0  0  0  0  0  0  0  0  0
    5.7931   -8.5525    0.0000 O   0  0  0  0  0  0  0  0  0  0  0  0
    4.3642   -7.7275    0.0000 O   0  0  0  0  0  0  0  0  0  0  0  0
    7.2221   -7.7275    0.0000 O   0  0  0  0  0  0  0  0  0  0  0  0
    3.6497   -6.4900    0.0000 O   0  0  0  0  0  0  0  0  0  0  0  0
    8.0471   -6.0775    0.0000 C   0  0  0  0  0  0  0  0  0  0  0  0
    8.4596   -6.7920    0.0000 C   0  0  0  0  0  0  0  0  0  0  0  0
    9.2846   -6.7920    0.0000 C   0  0  0  0  0  0  0  0  0  0  0  0
    9.6971   -6.0775    0.0000 C   0  0  0  0  0  0  0  0  0  0  0  0
    9.2846   -5.3630    0.0000 C   0  0  0  0  0  0  0  0  0  0  0  0
    8.4596   -5.3630    0.0000 C   0  0  0  0  0  0  0  0  0  0  0  0
    8.0471   -4.6486    0.0000 O   0  0  0  0  0  0  0  0  0  0  0  0
    8.4596   -3.9341    0.0000 C   0  0  0  0  0  0  0  0  0  0  0  0
   10.5221   -6.0775    0.0000 C   0  0  0  0  0  0  0  0  0  0  0  0
   10.9346   -5.3630    0.0000 O   0  0  0  0  0  0  0  0  0  0  0  0
   10.9346   -6.7920    0.0000 O   0  0  0  0  0  0  0  0  0  0  0  0
    7.2221   -8.5525    0.0000 C   0  0  2  0  0  0  0  0  0  0  0  0
    6.5547   -9.0374    0.0000 O   0  0  0  0  0  0  0  0  0  0  0  0
    6.8096   -9.8220    0.0000 C   0  0  0  0  0  0  0  0  0  0  0  0
    7.6346   -9.8220    0.0000 C   0  0  1  0  0  0  0  0  0  0  0  0
    7.8895   -9.0374    0.0000 C   0  0  1  0  0  0  0  0  0  0  0  0
    7.6346  -10.6470    0.0000 C   0  0  0  0  0  0  0  0  0  0  0  0
    8.4315  -10.0356    0.0000 O   0  0  0  0  0  0  0  0  0  0  0  0
    8.6742   -8.7825    0.0000 O   0  0  0  0  0  0  0  0  0  0  0  0
    8.3491  -11.0595    0.0000 O   0  0  0  0  0  0  0  0  0  0  0  0
  1  2  1  0  0  0  0
  2  3  1  0  0  0  0
  3  4  1  0  0  0  0
  4  5  1  0  0  0  0
  5  6  1  0  0  0  0
  6  1  1  0  0  0  0
  1  7  1  1  0  0  0
  5  8  1  1  0  0  0
  3  9  1  1  0  0  0
  2 10  1  6  0  0  0
  4 11  1  6  0  0  0
  7 12  1  0  0  0  0
  8 13  1  0  0  0  0
 13 14  2  0  0  0  0
 14 15  1  0  0  0  0
 15 16  2  0  0  0  0
 16 17  1  0  0  0  0
 17 18  2  0  0  0  0
 18 13  1  0  0  0  0
 18 19  1  0  0  0  0
 19 20  1  0  0  0  0
 16 21  1  0  0  0  0
 21 22  2  0  0  0  0
 21 23  1  0  0  0  0
 24 11  1  1  0  0  0
 24 25  1  0  0  0  0
 25 26  1  0  0  0  0
 26 27  1  0  0  0  0
 27 28  1  0  0  0  0
 28 24  1  0  0  0  0
 27 29  1  1  0  0  0
 27 30  1  6  0  0  0
 28 31  1  6  0  0  0
 29 32  1  0  0  0  0
M  END
>  <cdx:fragmentId>
5

$$$$
