98152.cdx
  Mrv1902 05222410212D          

 42 46  0  0  0  0            999 V2000
    6.7003   -9.6610    0.0000 O   0  0  0  0  0  0  0  0  0  0  0  0
    5.2714   -7.1860    0.0000 O   0  0  0  0  0  0  0  0  0  0  0  0
   11.7016   -5.9485    0.0000 O   0  0  0  0  0  0  0  0  0  0  0  0
   12.4161   -7.1860    0.0000 C   0  0  0  0  0  0  0  0  0  0  0  0
   11.7016   -7.5985    0.0000 O   0  0  0  0  0  0  0  0  0  0  0  0
    9.5582   -6.3610    0.0000 C   0  0  0  0  0  0  0  0  0  0  0  0
   10.2727   -5.9485    0.0000 C   0  0  0  0  0  0  0  0  0  0  0  0
   10.9871   -6.3610    0.0000 C   0  0  0  0  0  0  0  0  0  0  0  0
   10.9871   -7.1860    0.0000 C   0  0  0  0  0  0  0  0  0  0  0  0
   10.2727   -7.5985    0.0000 C   0  0  0  0  0  0  0  0  0  0  0  0
    9.5582   -7.1860    0.0000 C   0  0  0  0  0  0  0  0  0  0  0  0
    8.1293   -9.6610    0.0000 O   0  0  0  0  0  0  0  0  0  0  0  0
    8.1293   -7.1860    0.0000 O   0  0  0  0  0  0  0  0  0  0  0  0
    7.4148   -7.5985    0.0000 C   0  0  0  0  0  0  0  0  0  0  0  0
    6.7003   -7.1860    0.0000 C   0  0  0  0  0  0  0  0  0  0  0  0
    5.9859   -7.5985    0.0000 C   0  0  0  0  0  0  0  0  0  0  0  0
    5.9859   -8.4235    0.0000 C   0  0  0  0  0  0  0  0  0  0  0  0
    6.7003   -8.8360    0.0000 C   0  0  0  0  0  0  0  0  0  0  0  0
    7.4148   -8.4235    0.0000 C   0  0  0  0  0  0  0  0  0  0  0  0
    8.1293   -8.8360    0.0000 C   0  0  0  0  0  0  0  0  0  0  0  0
    8.8437   -8.4235    0.0000 C   0  0  0  0  0  0  0  0  0  0  0  0
    8.8437   -7.5985    0.0000 C   0  0  0  0  0  0  0  0  0  0  0  0
    5.2714   -8.8360    0.0000 C   0  0  0  0  0  0  0  0  0  0  0  0
    6.7003   -6.3610    0.0000 C   0  0  0  0  0  0  0  0  0  0  0  0
    4.5569   -8.4235    0.0000 O   0  0  0  0  0  0  0  0  0  0  0  0
    3.8424   -8.8360    0.0000 C   0  0  0  0  0  0  0  0  0  0  0  0
    3.8424   -9.6610    0.0000 C   0  0  0  0  0  0  0  0  0  0  0  0
    4.5569  -10.0735    0.0000 C   0  0  0  0  0  0  0  0  0  0  0  0
    5.2714   -9.6610    0.0000 C   0  0  0  0  0  0  0  0  0  0  0  0
    7.4148   -5.9485    0.0000 O   0  0  0  0  0  0  0  0  0  0  0  0
    7.4148   -5.1235    0.0000 C   0  0  0  0  0  0  0  0  0  0  0  0
    6.7003   -4.7110    0.0000 C   0  0  0  0  0  0  0  0  0  0  0  0
    5.9859   -5.1235    0.0000 C   0  0  0  0  0  0  0  0  0  0  0  0
    5.9859   -5.9485    0.0000 C   0  0  0  0  0  0  0  0  0  0  0  0
    3.1280  -10.0735    0.0000 O   0  0  0  0  0  0  0  0  0  0  0  0
    4.5569  -10.8985    0.0000 O   0  0  0  0  0  0  0  0  0  0  0  0
    5.9859  -10.0735    0.0000 O   0  0  0  0  0  0  0  0  0  0  0  0
    5.2714   -6.3610    0.0000 O   0  0  0  0  0  0  0  0  0  0  0  0
    5.2714   -4.7110    0.0000 O   0  0  0  0  0  0  0  0  0  0  0  0
    6.7003   -3.8860    0.0000 O   0  0  0  0  0  0  0  0  0  0  0  0
    8.1293   -4.7110    0.0000 C   0  0  0  0  0  0  0  0  0  0  0  0
    8.1293   -3.8860    0.0000 O   0  0  0  0  0  0  0  0  0  0  0  0
 18  1  1  0  0  0  0
 16  2  1  0  0  0  0
 22 11  1  0  0  0  0
  8  3  1  0  0  0  0
  9  5  1  0  0  0  0
  5  4  1  0  0  0  0
 11  6  2  0  0  0  0
  7  6  1  0  0  0  0
  8  7  2  0  0  0  0
  9  8  1  0  0  0  0
 10  9  2  0  0  0  0
 11 10  1  0  0  0  0
 20 12  2  0  0  0  0
 22 13  1  0  0  0  0
 14 13  1  0  0  0  0
 19 14  2  0  0  0  0
 15 14  1  0  0  0  0
 16 15  2  0  0  0  0
 17 16  1  0  0  0  0
 18 17  2  0  0  0  0
 19 18  1  0  0  0  0
 20 19  1  0  0  0  0
 21 20  1  0  0  0  0
 22 21  2  0  0  0  0
 17 23  1  0  0  0  0
 15 24  1  0  0  0  0
 23 25  1  0  0  0  0
 25 26  1  0  0  0  0
 26 27  1  0  0  0  0
 27 28  1  0  0  0  0
 28 29  1  0  0  0  0
 29 23  1  0  0  0  0
 24 30  1  0  0  0  0
 30 31  1  0  0  0  0
 31 32  1  0  0  0  0
 32 33  1  0  0  0  0
 33 34  1  0  0  0  0
 34 24  1  0  0  0  0
 27 35  1  0  0  0  0
 28 36  1  0  0  0  0
 29 37  1  0  0  0  0
 34 38  1  0  0  0  0
 33 39  1  0  0  0  0
 32 40  1  0  0  0  0
 31 41  1  0  0  0  0
 41 42  1  0  0  0  0
M  END
>  <cdx:fragmentId>
5

$$$$
