98154.cdx
  Mrv1902 05222410222D          

 42 46  0  0  0  0            999 V2000
    7.1953   -9.6885    0.0000 O   0  0  0  0  0  0  0  0  0  0  0  0
    5.7664   -7.2135    0.0000 O   0  0  0  0  0  0  0  0  0  0  0  0
   12.1966   -7.6260    0.0000 O   0  0  0  0  0  0  0  0  0  0  0  0
   12.9111   -6.3885    0.0000 C   0  0  0  0  0  0  0  0  0  0  0  0
   12.1966   -5.9760    0.0000 O   0  0  0  0  0  0  0  0  0  0  0  0
   10.0532   -6.3885    0.0000 C   0  0  0  0  0  0  0  0  0  0  0  0
   10.7677   -5.9760    0.0000 C   0  0  0  0  0  0  0  0  0  0  0  0
   11.4821   -6.3885    0.0000 C   0  0  0  0  0  0  0  0  0  0  0  0
   11.4821   -7.2135    0.0000 C   0  0  0  0  0  0  0  0  0  0  0  0
   10.7677   -7.6260    0.0000 C   0  0  0  0  0  0  0  0  0  0  0  0
   10.0532   -7.2135    0.0000 C   0  0  0  0  0  0  0  0  0  0  0  0
    8.6243   -9.6885    0.0000 O   0  0  0  0  0  0  0  0  0  0  0  0
    8.6243   -7.2135    0.0000 O   0  0  0  0  0  0  0  0  0  0  0  0
    7.9098   -7.6260    0.0000 C   0  0  0  0  0  0  0  0  0  0  0  0
    7.1953   -7.2135    0.0000 C   0  0  0  0  0  0  0  0  0  0  0  0
    6.4809   -7.6260    0.0000 C   0  0  0  0  0  0  0  0  0  0  0  0
    6.4809   -8.4510    0.0000 C   0  0  0  0  0  0  0  0  0  0  0  0
    7.1953   -8.8635    0.0000 C   0  0  0  0  0  0  0  0  0  0  0  0
    7.9098   -8.4510    0.0000 C   0  0  0  0  0  0  0  0  0  0  0  0
    8.6243   -8.8635    0.0000 C   0  0  0  0  0  0  0  0  0  0  0  0
    9.3387   -8.4510    0.0000 C   0  0  0  0  0  0  0  0  0  0  0  0
    9.3387   -7.6260    0.0000 C   0  0  0  0  0  0  0  0  0  0  0  0
    5.7664   -8.8635    0.0000 C   0  0  0  0  0  0  0  0  0  0  0  0
    5.0519   -8.4510    0.0000 O   0  0  0  0  0  0  0  0  0  0  0  0
    4.3374   -8.8635    0.0000 C   0  0  0  0  0  0  0  0  0  0  0  0
    4.3374   -9.6885    0.0000 C   0  0  0  0  0  0  0  0  0  0  0  0
    5.0519  -10.1010    0.0000 C   0  0  0  0  0  0  0  0  0  0  0  0
    5.7664   -9.6885    0.0000 C   0  0  0  0  0  0  0  0  0  0  0  0
    3.6230   -8.4510    0.0000 C   0  0  0  0  0  0  0  0  0  0  0  0
    2.9085   -8.8635    0.0000 O   0  0  0  0  0  0  0  0  0  0  0  0
    3.6230  -10.1010    0.0000 O   0  0  0  0  0  0  0  0  0  0  0  0
    5.0519  -10.9260    0.0000 O   0  0  0  0  0  0  0  0  0  0  0  0
    6.4809  -10.1010    0.0000 O   0  0  0  0  0  0  0  0  0  0  0  0
    7.1953   -6.3885    0.0000 C   0  0  0  0  0  0  0  0  0  0  0  0
    7.9098   -5.9760    0.0000 O   0  0  0  0  0  0  0  0  0  0  0  0
    7.9098   -5.1510    0.0000 C   0  0  0  0  0  0  0  0  0  0  0  0
    7.1953   -4.7385    0.0000 C   0  0  0  0  0  0  0  0  0  0  0  0
    6.4809   -5.1510    0.0000 C   0  0  0  0  0  0  0  0  0  0  0  0
    6.4809   -5.9760    0.0000 C   0  0  0  0  0  0  0  0  0  0  0  0
    5.7664   -6.3885    0.0000 O   0  0  0  0  0  0  0  0  0  0  0  0
    5.7664   -4.7385    0.0000 O   0  0  0  0  0  0  0  0  0  0  0  0
    7.1953   -3.9135    0.0000 O   0  0  0  0  0  0  0  0  0  0  0  0
 18  1  1  0  0  0  0
 16  2  1  0  0  0  0
 22 11  1  0  0  0  0
  9  3  1  0  0  0  0
  8  5  1  0  0  0  0
  5  4  1  0  0  0  0
 11  6  2  0  0  0  0
  7  6  1  0  0  0  0
  8  7  2  0  0  0  0
  9  8  1  0  0  0  0
 10  9  2  0  0  0  0
 11 10  1  0  0  0  0
 20 12  2  0  0  0  0
 22 13  1  0  0  0  0
 14 13  1  0  0  0  0
 19 14  2  0  0  0  0
 15 14  1  0  0  0  0
 16 15  2  0  0  0  0
 17 16  1  0  0  0  0
 18 17  2  0  0  0  0
 19 18  1  0  0  0  0
 20 19  1  0  0  0  0
 21 20  1  0  0  0  0
 22 21  2  0  0  0  0
 17 23  1  0  0  0  0
 23 24  1  0  0  0  0
 24 25  1  0  0  0  0
 25 26  1  0  0  0  0
 26 27  1  0  0  0  0
 27 28  1  0  0  0  0
 28 23  1  0  0  0  0
 25 29  1  0  0  0  0
 29 30  1  0  0  0  0
 26 31  1  0  0  0  0
 27 32  1  0  0  0  0
 28 33  1  0  0  0  0
 15 34  1  0  0  0  0
 34 35  1  0  0  0  0
 35 36  1  0  0  0  0
 36 37  1  0  0  0  0
 37 38  1  0  0  0  0
 38 39  1  0  0  0  0
 39 34  1  0  0  0  0
 39 40  1  0  0  0  0
 38 41  1  0  0  0  0
 37 42  1  0  0  0  0
M  END
>  <cdx:fragmentId>
5

$$$$
