98167.cdx
  Mrv1902 05222410232D          

 55 61  0  0  0  0            999 V2000
    4.4205   -9.8175    0.0000 C   0  0  1  0  0  0  0  0  0  0  0  0
    4.4205   -8.9925    0.0000 C   0  0  0  0  0  0  0  0  0  0  0  0
    5.1350   -8.5800    0.0000 C   0  0  0  0  0  0  0  0  0  0  0  0
    5.1350  -10.2300    0.0000 C   0  0  0  0  0  0  0  0  0  0  0  0
    5.5475  -10.9445    0.0000 C   0  0  0  0  0  0  0  0  0  0  0  0
    4.7225  -10.9445    0.0000 C   0  0  0  0  0  0  0  0  0  0  0  0
    5.8495   -9.8175    0.0000 C   0  0  2  0  0  0  0  0  0  0  0  0
    5.8495  -10.6425    0.0000 H   0  0  0  0  0  0  0  0  0  0  0  0
    6.5639  -10.2300    0.0000 C   0  0  0  0  0  0  0  0  0  0  0  0
    7.2784   -9.8175    0.0000 C   0  0  0  0  0  0  0  0  0  0  0  0
    7.2784   -8.9925    0.0000 C   0  0  1  0  0  0  0  0  0  0  0  0
    7.2784   -8.1675    0.0000 C   0  0  0  0  0  0  0  0  0  0  0  0
    7.9929   -8.5800    0.0000 C   0  0  2  0  0  0  0  0  0  0  0  0
    7.9929   -9.4050    0.0000 C   0  0  0  0  0  0  0  0  0  0  0  0
    8.7074   -8.9925    0.0000 C   0  0  0  0  0  0  0  0  0  0  0  0
    9.4218   -8.5800    0.0000 C   0  0  0  0  0  0  0  0  0  0  0  0
    9.4218   -7.7550    0.0000 C   0  0  1  0  0  0  0  0  0  0  0  0
   10.1363   -8.1675    0.0000 C   0  0  0  0  0  0  0  0  0  0  0  0
   10.1363   -7.3425    0.0000 C   0  0  0  0  0  0  0  0  0  0  0  0
   10.1363   -6.5175    0.0000 C   0  0  0  0  0  0  0  0  0  0  0  0
    9.4218   -6.1050    0.0000 C   0  0  1  0  0  0  0  0  0  0  0  0
    9.4218   -5.2800    0.0000 C   0  0  0  0  0  0  0  0  0  0  0  0
    8.7074   -6.5175    0.0000 C   0  0  0  0  0  0  0  0  0  0  0  0
    7.9929   -6.1050    0.0000 C   0  0  0  0  0  0  0  0  0  0  0  0
    8.7074   -7.3425    0.0000 C   0  0  0  0  0  0  0  0  0  0  0  0
    7.9929   -7.7550    0.0000 C   0  0  0  0  0  0  0  0  0  0  0  0
    7.2784   -7.3425    0.0000 C   0  0  0  0  0  0  0  0  0  0  0  0
    6.5639   -7.7550    0.0000 C   0  0  0  0  0  0  0  0  0  0  0  0
    6.5639   -8.5800    0.0000 C   0  0  2  0  0  0  0  0  0  0  0  0
    5.8495   -8.9925    0.0000 C   0  0  1  0  0  0  0  0  0  0  0  0
    5.8495   -8.1675    0.0000 C   0  0  0  0  0  0  0  0  0  0  0  0
   10.1363   -8.9925    0.0000 O   0  0  0  0  0  0  0  0  0  0  0  0
    3.7061  -10.2300    0.0000 O   0  0  0  0  0  0  0  0  0  0  0  0
    2.9916   -9.8175    0.0000 C   0  0  1  0  0  0  0  0  0  0  0  0
    2.2771  -10.2300    0.0000 C   0  0  2  0  0  0  0  0  0  0  0  0
    2.2771  -11.0550    0.0000 O   0  0  0  0  0  0  0  0  0  0  0  0
    1.5626   -9.8175    0.0000 C   0  0  1  0  0  0  0  0  0  0  0  0
    0.8482  -10.2300    0.0000 O   0  0  0  0  0  0  0  0  0  0  0  0
    1.5626   -8.9925    0.0000 C   0  0  1  0  0  0  0  0  0  0  0  0
    0.8482   -8.5800    0.0000 O   0  0  0  0  0  0  0  0  0  0  0  0
    2.2771   -8.5800    0.0000 C   0  0  0  0  0  0  0  0  0  0  0  0
    2.9916   -8.9925    0.0000 O   0  0  0  0  0  0  0  0  0  0  0  0
    6.5639   -9.4050    0.0000 H   0  0  0  0  0  0  0  0  0  0  0  0
   12.9995  -10.6385    0.0000 O   0  0  0  0  0  0  0  0  0  0  0  0
   12.2843  -10.2273    0.0000 C   0  0  0  0  0  0  0  0  0  0  0  0
   11.5675   -8.9912    0.0000 O   0  0  0  0  0  0  0  0  0  0  0  0
   12.2828   -9.4023    0.0000 C   0  0  1  0  0  0  0  0  0  0  0  0
   13.7117   -9.3997    0.0000 O   0  0  0  0  0  0  0  0  0  0  0  0
   12.9965   -8.9885    0.0000 C   0  0  1  0  0  0  0  0  0  0  0  0
   13.7086   -7.7497    0.0000 O   0  0  0  0  0  0  0  0  0  0  0  0
   12.9949   -8.1635    0.0000 C   0  0  2  0  0  0  0  0  0  0  0  0
   12.2782   -6.9273    0.0000 O   0  0  0  0  0  0  0  0  0  0  0  0
   12.2797   -7.7523    0.0000 C   0  0  1  0  0  0  0  0  0  0  0  0
   11.5660   -8.1662    0.0000 C   0  0  2  0  0  0  0  0  0  0  0  0
   10.8508   -7.7550    0.0000 O   0  0  0  0  0  0  0  0  0  0  0  0
 54 55  1  1  0  0  0
 54 46  1  0  0  0  0
 45 44  1  0  0  0  0
 47 45  1  1  0  0  0
 47 46  1  0  0  0  0
 49 47  1  0  0  0  0
 49 48  1  6  0  0  0
 51 49  1  0  0  0  0
 51 50  1  1  0  0  0
 53 51  1  0  0  0  0
 53 52  1  6  0  0  0
 54 53  1  0  0  0  0
  1  2  1  0  0  0  0
  2  3  1  0  0  0  0
  1  4  1  0  0  0  0
  4  5  1  0  0  0  0
  4  6  1  0  0  0  0
  4  7  1  0  0  0  0
  7  8  1  6  0  0  0
  7  9  1  0  0  0  0
  9 10  1  0  0  0  0
 10 11  1  0  0  0  0
 11 12  1  1  0  0  0
 11 13  1  0  0  0  0
 13 14  1  6  0  0  0
 13 15  1  0  0  0  0
 15 16  1  0  0  0  0
 16 17  1  0  0  0  0
 17 18  1  1  0  0  0
 17 19  1  0  0  0  0
 19 20  1  0  0  0  0
 20 21  1  0  0  0  0
 21 22  1  6  0  0  0
 21 23  1  0  0  0  0
 23 24  1  1  0  0  0
 23 25  2  0  0  0  0
 17 25  1  0  0  0  0
 25 26  1  0  0  0  0
 13 26  1  0  0  0  0
 26 27  2  0  0  0  0
 27 28  1  0  0  0  0
 28 29  1  0  0  0  0
 11 29  1  0  0  0  0
 29 30  1  0  0  0  0
  3 30  1  0  0  0  0
  7 30  1  0  0  0  0
 30 31  1  1  0  0  0
 18 32  2  0  0  0  0
 18 55  1  0  0  0  0
 34 35  1  0  0  0  0
 35 36  1  6  0  0  0
 35 37  1  0  0  0  0
 37 38  1  1  0  0  0
 37 39  1  0  0  0  0
 39 40  1  1  0  0  0
 39 41  1  0  0  0  0
 41 42  1  0  0  0  0
 34 42  1  0  0  0  0
 34 33  1  1  0  0  0
  1 33  1  1  0  0  0
 29 43  1  6  0  0  0
M  END
>  <cdx:fragmentId>
5

$$$$
