98162.cdx
  Mrv1902 05222410252D          

 41 45  0  0  0  0            999 V2000
    6.8112   -6.5725    0.0000 C   0  0  0  0  0  0  0  0  0  0  0  0
    6.8112   -7.3975    0.0000 C   0  0  0  0  0  0  0  0  0  0  0  0
    7.5256   -7.8100    0.0000 C   0  0  0  0  0  0  0  0  0  0  0  0
    8.2401   -7.3975    0.0000 C   0  0  0  0  0  0  0  0  0  0  0  0
    8.2401   -6.5725    0.0000 C   0  0  0  0  0  0  0  0  0  0  0  0
    7.5256   -6.1600    0.0000 C   0  0  0  0  0  0  0  0  0  0  0  0
    8.9546   -7.8100    0.0000 C   0  0  0  0  0  0  0  0  0  0  0  0
    9.6691   -7.3975    0.0000 C   0  0  0  0  0  0  0  0  0  0  0  0
    9.6691   -6.5725    0.0000 C   0  0  0  0  0  0  0  0  0  0  0  0
    8.9546   -6.1600    0.0000 O   0  0  0  0  0  0  0  0  0  0  0  0
   11.0980   -6.5725    0.0000 C   0  0  0  0  0  0  0  0  0  0  0  0
   10.3835   -6.1600    0.0000 C   0  0  0  0  0  0  0  0  0  0  0  0
   11.8125   -6.1600    0.0000 C   0  0  0  0  0  0  0  0  0  0  0  0
   11.8125   -5.3350    0.0000 C   0  0  0  0  0  0  0  0  0  0  0  0
   11.0980   -4.9225    0.0000 C   0  0  0  0  0  0  0  0  0  0  0  0
   10.3835   -5.3350    0.0000 C   0  0  0  0  0  0  0  0  0  0  0  0
   12.5269   -4.9225    0.0000 O   0  0  0  0  0  0  0  0  0  0  0  0
   13.2414   -5.3350    0.0000 C   0  0  0  0  0  0  0  0  0  0  0  0
    8.9546   -8.6350    0.0000 O   0  0  0  0  0  0  0  0  0  0  0  0
    6.0967   -6.1600    0.0000 O   0  0  0  0  0  0  0  0  0  0  0  0
    7.5256   -8.6350    0.0000 O   0  0  0  0  0  0  0  0  0  0  0  0
    6.8112   -9.0475    0.0000 C   0  0  2  0  0  0  0  0  0  0  0  0
    6.0967   -8.6350    0.0000 O   0  0  0  0  0  0  0  0  0  0  0  0
    5.3822   -9.0475    0.0000 C   0  0  1  0  0  0  0  0  0  0  0  0
    5.3822   -9.8725    0.0000 C   0  0  2  0  0  0  0  0  0  0  0  0
    6.0967  -10.2850    0.0000 C   0  0  2  0  0  0  0  0  0  0  0  0
    6.8112   -9.8725    0.0000 C   0  0  1  0  0  0  0  0  0  0  0  0
    4.6678   -8.6350    0.0000 C   0  0  0  0  0  0  0  0  0  0  0  0
    3.9533   -9.0475    0.0000 O   0  0  0  0  0  0  0  0  0  0  0  0
    3.2388   -8.6350    0.0000 C   0  0  2  0  0  0  0  0  0  0  0  0
    3.2388   -7.8100    0.0000 O   0  0  0  0  0  0  0  0  0  0  0  0
    2.5244   -7.3975    0.0000 C   0  0  0  0  0  0  0  0  0  0  0  0
    1.8099   -7.8100    0.0000 C   0  0  2  0  0  0  0  0  0  0  0  0
    1.8099   -8.6350    0.0000 C   0  0  2  0  0  0  0  0  0  0  0  0
    2.5244   -9.0475    0.0000 C   0  0  1  0  0  0  0  0  0  0  0  0
    7.5256  -10.2850    0.0000 O   0  0  0  0  0  0  0  0  0  0  0  0
    6.0967  -11.1100    0.0000 O   0  0  0  0  0  0  0  0  0  0  0  0
    4.6678  -10.2850    0.0000 O   0  0  0  0  0  0  0  0  0  0  0  0
    2.5244   -9.8725    0.0000 O   0  0  0  0  0  0  0  0  0  0  0  0
    1.0954   -9.0475    0.0000 O   0  0  0  0  0  0  0  0  0  0  0  0
    1.0954   -7.3975    0.0000 O   0  0  0  0  0  0  0  0  0  0  0  0
  1  2  2  0  0  0  0
  2  3  1  0  0  0  0
  3  4  2  0  0  0  0
  4  5  1  0  0  0  0
  5  6  2  0  0  0  0
  6  1  1  0  0  0  0
  4  7  1  0  0  0  0
  7  8  1  0  0  0  0
  8  9  2  0  0  0  0
  9 10  1  0  0  0  0
 10  5  1  0  0  0  0
 11 12  2  0  0  0  0
 12  9  1  0  0  0  0
 11 13  1  0  0  0  0
 13 14  2  0  0  0  0
 14 15  1  0  0  0  0
 15 16  2  0  0  0  0
 16 12  1  0  0  0  0
 14 17  1  0  0  0  0
 17 18  1  0  0  0  0
  7 19  2  0  0  0  0
  1 20  1  0  0  0  0
  3 21  1  0  0  0  0
 22 21  1  1  0  0  0
 22 23  1  0  0  0  0
 23 24  1  0  0  0  0
 24 25  1  0  0  0  0
 25 26  1  0  0  0  0
 26 27  1  0  0  0  0
 27 22  1  0  0  0  0
 24 28  1  1  0  0  0
 28 29  1  0  0  0  0
 30 29  1  1  0  0  0
 30 31  1  0  0  0  0
 31 32  1  0  0  0  0
 32 33  1  0  0  0  0
 33 34  1  0  0  0  0
 34 35  1  0  0  0  0
 35 30  1  0  0  0  0
 27 36  1  6  0  0  0
 26 37  1  6  0  0  0
 25 38  1  6  0  0  0
 35 39  1  6  0  0  0
 34 40  1  6  0  0  0
 33 41  1  6  0  0  0
M  END
>  <cdx:fragmentId>
5

$$$$
