98163.cdx
  Mrv1902 05222410252D          

 42 46  0  0  0  0            999 V2000
    7.2776   -8.3311    0.0000 O   0  0  0  0  0  0  0  0  0  0  0  0
    6.5642   -8.7455    0.0000 C   0  0  1  0  0  0  0  0  0  0  0  0
    6.5663   -9.5705    0.0000 C   0  0  2  0  0  0  0  0  0  0  0  0
    7.2819   -9.9811    0.0000 O   0  0  0  0  0  0  0  0  0  0  0  0
    5.8529   -9.9848    0.0000 C   0  0  1  0  0  0  0  0  0  0  0  0
    5.8551  -10.8098    0.0000 O   0  0  0  0  0  0  0  0  0  0  0  0
    5.1374   -9.5742    0.0000 C   0  0  1  0  0  0  0  0  0  0  0  0
    4.4240   -9.9885    0.0000 O   0  0  0  0  0  0  0  0  0  0  0  0
    5.1352   -8.7492    0.0000 C   0  0  2  0  0  0  0  0  0  0  0  0
    5.8486   -8.3348    0.0000 O   0  0  0  0  0  0  0  0  0  0  0  0
    4.4197   -8.3385    0.0000 C   0  0  0  0  0  0  0  0  0  0  0  0
    3.7063   -8.7529    0.0000 O   0  0  0  0  0  0  0  0  0  0  0  0
    2.9907   -8.3423    0.0000 C   0  0  1  0  0  0  0  0  0  0  0  0
    2.9886   -7.5173    0.0000 C   0  0  2  0  0  0  0  0  0  0  0  0
    3.7020   -7.1029    0.0000 O   0  0  0  0  0  0  0  0  0  0  0  0
    2.2731   -7.1066    0.0000 C   0  0  2  0  0  0  0  0  0  0  0  0
    2.2709   -6.2816    0.0000 O   0  0  0  0  0  0  0  0  0  0  0  0
    1.5597   -7.5210    0.0000 C   0  0  1  0  0  0  0  0  0  0  0  0
    0.8441   -7.1104    0.0000 O   0  0  0  0  0  0  0  0  0  0  0  0
    1.5618   -8.3460    0.0000 C   0  0  1  0  0  0  0  0  0  0  0  0
    2.2774   -8.7566    0.0000 O   0  0  0  0  0  0  0  0  0  0  0  0
    0.8484   -8.7604    0.0000 C   0  0  0  0  0  0  0  0  0  0  0  0
    5.8466   -5.8572    0.0000 O   0  0  0  0  0  0  0  0  0  0  0  0
   12.2752   -3.7896    0.0000 C   0  0  0  0  0  0  0  0  0  0  0  0
   12.2759   -4.6146    0.0000 O   0  0  0  0  0  0  0  0  0  0  0  0
   10.1328   -5.0288    0.0000 C   0  0  0  0  0  0  0  0  0  0  0  0
   10.8469   -4.6157    0.0000 C   0  0  0  0  0  0  0  0  0  0  0  0
   11.5617   -5.0276    0.0000 C   0  0  0  0  0  0  0  0  0  0  0  0
   11.5624   -5.8526    0.0000 C   0  0  0  0  0  0  0  0  0  0  0  0
   10.8482   -6.2657    0.0000 C   0  0  0  0  0  0  0  0  0  0  0  0
   10.1334   -5.8538    0.0000 C   0  0  0  0  0  0  0  0  0  0  0  0
    8.7065   -8.3299    0.0000 O   0  0  0  0  0  0  0  0  0  0  0  0
    7.2769   -7.5061    0.0000 C   0  0  0  0  0  0  0  0  0  0  0  0
    6.5621   -7.0942    0.0000 C   0  0  0  0  0  0  0  0  0  0  0  0
    6.5614   -6.2692    0.0000 C   0  0  0  0  0  0  0  0  0  0  0  0
    7.2756   -5.8561    0.0000 C   0  0  0  0  0  0  0  0  0  0  0  0
    8.7045   -5.8549    0.0000 O   0  0  0  0  0  0  0  0  0  0  0  0
    7.9904   -6.2680    0.0000 C   0  0  0  0  0  0  0  0  0  0  0  0
    7.9910   -7.0930    0.0000 C   0  0  0  0  0  0  0  0  0  0  0  0
    8.7058   -7.5049    0.0000 C   0  0  0  0  0  0  0  0  0  0  0  0
    9.4200   -7.0919    0.0000 C   0  0  0  0  0  0  0  0  0  0  0  0
    9.4193   -6.2669    0.0000 C   0  0  0  0  0  0  0  0  0  0  0  0
 33  1  1  0  0  0  0
  2  3  1  0  0  0  0
 35 23  1  0  0  0  0
 42 31  1  0  0  0  0
 28 25  1  0  0  0  0
 25 24  1  0  0  0  0
 31 26  2  0  0  0  0
 27 26  1  0  0  0  0
 28 27  2  0  0  0  0
 29 28  1  0  0  0  0
 30 29  2  0  0  0  0
 31 30  1  0  0  0  0
 40 32  2  0  0  0  0
 36 38  2  0  0  0  0
 33 39  2  0  0  0  0
 34 33  1  0  0  0  0
 35 34  2  0  0  0  0
 36 35  1  0  0  0  0
 42 37  1  0  0  0  0
 38 37  1  0  0  0  0
 39 38  1  0  0  0  0
 40 39  1  0  0  0  0
 41 40  1  0  0  0  0
 42 41  2  0  0  0  0
  3  4  1  6  0  0  0
  3  5  1  0  0  0  0
  5  6  1  1  0  0  0
  5  7  1  0  0  0  0
  7  8  1  1  0  0  0
  7  9  1  0  0  0  0
  9 10  1  0  0  0  0
  9 11  1  1  0  0  0
 11 12  1  0  0  0  0
  2 10  1  0  0  0  0
 13 14  1  0  0  0  0
 14 15  1  1  0  0  0
 14 16  1  0  0  0  0
 16 17  1  1  0  0  0
 16 18  1  0  0  0  0
 18 19  1  6  0  0  0
 18 20  1  0  0  0  0
 20 21  1  0  0  0  0
 20 22  1  1  0  0  0
 13 21  1  0  0  0  0
 13 12  1  6  0  0  0
  2  1  1  1  0  0  0
M  END
>  <cdx:fragmentId>
47

$$$$
