98164.cdx
  Mrv1902 05222410242D          

 44 48  0  0  0  0            999 V2000
    5.7376   -9.6648    0.0000 O   0  0  0  0  0  0  0  0  0  0  0  0
    3.5942   -7.6042    0.0000 C   0  0  1  0  0  0  0  0  0  0  0  0
    3.5963   -8.4292    0.0000 C   0  0  2  0  0  0  0  0  0  0  0  0
    4.3119   -8.8398    0.0000 O   0  0  0  0  0  0  0  0  0  0  0  0
    2.8829   -8.8436    0.0000 C   0  0  1  0  0  0  0  0  0  0  0  0
    2.8851   -9.6686    0.0000 O   0  0  0  0  0  0  0  0  0  0  0  0
    2.1674   -8.4329    0.0000 C   0  0  2  0  0  0  0  0  0  0  0  0
    1.4540   -8.8473    0.0000 O   0  0  0  0  0  0  0  0  0  0  0  0
    2.1652   -7.6079    0.0000 C   0  0  2  0  0  0  0  0  0  0  0  0
    2.8786   -7.1936    0.0000 O   0  0  0  0  0  0  0  0  0  0  0  0
    1.4497   -7.1973    0.0000 C   0  0  0  0  0  0  0  0  0  0  0  0
    0.7363   -7.6117    0.0000 O   0  0  0  0  0  0  0  0  0  0  0  0
    4.3066   -7.1910    0.0000 O   0  0  0  0  0  0  0  0  0  0  0  0
   10.7359   -5.9483    0.0000 O   0  0  0  0  0  0  0  0  0  0  0  0
    8.5928   -6.3625    0.0000 C   0  0  0  0  0  0  0  0  0  0  0  0
    9.3069   -5.9495    0.0000 C   0  0  0  0  0  0  0  0  0  0  0  0
   10.0217   -6.3614    0.0000 C   0  0  0  0  0  0  0  0  0  0  0  0
   10.0224   -7.1864    0.0000 C   0  0  0  0  0  0  0  0  0  0  0  0
    9.3082   -7.5995    0.0000 C   0  0  0  0  0  0  0  0  0  0  0  0
    8.5934   -7.1875    0.0000 C   0  0  0  0  0  0  0  0  0  0  0  0
    7.1665   -9.6637    0.0000 O   0  0  0  0  0  0  0  0  0  0  0  0
    5.7369   -8.8398    0.0000 C   0  0  0  0  0  0  0  0  0  0  0  0
    5.0221   -8.4279    0.0000 C   0  0  0  0  0  0  0  0  0  0  0  0
    5.0214   -7.6029    0.0000 C   0  0  0  0  0  0  0  0  0  0  0  0
    5.7356   -7.1898    0.0000 C   0  0  0  0  0  0  0  0  0  0  0  0
    7.1645   -7.1887    0.0000 O   0  0  0  0  0  0  0  0  0  0  0  0
    6.4504   -7.6018    0.0000 C   0  0  0  0  0  0  0  0  0  0  0  0
    6.4510   -8.4268    0.0000 C   0  0  0  0  0  0  0  0  0  0  0  0
    7.1658   -8.8387    0.0000 C   0  0  0  0  0  0  0  0  0  0  0  0
    7.8800   -8.4256    0.0000 C   0  0  0  0  0  0  0  0  0  0  0  0
    7.8793   -7.6006    0.0000 C   0  0  0  0  0  0  0  0  0  0  0  0
    1.4475   -6.3723    0.0000 O   0  0  0  0  0  0  0  0  0  0  0  0
   11.4606   -6.3485    0.0000 C   0  0  1  0  0  0  0  0  0  0  0  0
   12.1722   -5.9311    0.0000 C   0  0  2  0  0  0  0  0  0  0  0  0
   12.1664   -5.1061    0.0000 O   0  0  0  0  0  0  0  0  0  0  0  0
   12.8895   -6.3386    0.0000 C   0  0  1  0  0  0  0  0  0  0  0  0
   13.6011   -5.9211    0.0000 O   0  0  0  0  0  0  0  0  0  0  0  0
   12.8953   -7.1635    0.0000 C   0  0  2  0  0  0  0  0  0  0  0  0
   13.6126   -7.5710    0.0000 O   0  0  0  0  0  0  0  0  0  0  0  0
   12.1837   -7.5810    0.0000 C   0  0  2  0  0  0  0  0  0  0  0  0
   11.4663   -7.1735    0.0000 O   0  0  0  0  0  0  0  0  0  0  0  0
   12.1894   -8.4060    0.0000 C   0  0  0  0  0  0  0  0  0  0  0  0
   12.9068   -8.8135    0.0000 O   0  0  0  0  0  0  0  0  0  0  0  0
   11.4779   -8.8235    0.0000 O   0  0  0  0  0  0  0  0  0  0  0  0
 22  1  1  0  0  0  0
  2  3  1  0  0  0  0
 24 13  1  0  0  0  0
 31 20  1  0  0  0  0
 17 14  1  0  0  0  0
 20 15  2  0  0  0  0
 16 15  1  0  0  0  0
 17 16  2  0  0  0  0
 18 17  1  0  0  0  0
 19 18  2  0  0  0  0
 20 19  1  0  0  0  0
 29 21  2  0  0  0  0
 25 27  2  0  0  0  0
 22 28  2  0  0  0  0
 23 22  1  0  0  0  0
 24 23  2  0  0  0  0
 25 24  1  0  0  0  0
 31 26  1  0  0  0  0
 27 26  1  0  0  0  0
 28 27  1  0  0  0  0
 29 28  1  0  0  0  0
 30 29  1  0  0  0  0
 31 30  2  0  0  0  0
  3  4  1  6  0  0  0
  3  5  1  0  0  0  0
  5  6  1  1  0  0  0
  5  7  1  0  0  0  0
  7  8  1  6  0  0  0
  7  9  1  0  0  0  0
  9 10  1  0  0  0  0
  9 11  1  1  0  0  0
 11 12  1  0  0  0  0
  2 10  1  0  0  0  0
 11 32  2  0  0  0  0
 33 34  1  0  0  0  0
 34 35  1  6  0  0  0
 34 36  1  0  0  0  0
 36 37  1  1  0  0  0
 36 38  1  0  0  0  0
 38 39  1  6  0  0  0
 38 40  1  0  0  0  0
 40 41  1  0  0  0  0
 40 42  1  1  0  0  0
 42 43  1  0  0  0  0
 33 41  1  0  0  0  0
 42 44  2  0  0  0  0
  2 13  1  1  0  0  0
 33 14  1  1  0  0  0
M  END
>  <cdx:fragmentId>
47

$$$$
