98161.cdx
  Mrv1902 05222410252D          

 33 36  0  0  0  0            999 V2000
   12.1845   -7.5435    0.0000 O   0  0  0  0  0  0  0  0  0  0  0  0
   12.1845   -5.8935    0.0000 O   0  0  0  0  0  0  0  0  0  0  0  0
   10.0411   -6.3060    0.0000 C   0  0  0  0  0  0  0  0  0  0  0  0
   10.7556   -5.8935    0.0000 C   0  0  0  0  0  0  0  0  0  0  0  0
   11.4700   -6.3060    0.0000 C   0  0  0  0  0  0  0  0  0  0  0  0
   11.4700   -7.1310    0.0000 C   0  0  0  0  0  0  0  0  0  0  0  0
   10.7556   -7.5435    0.0000 C   0  0  0  0  0  0  0  0  0  0  0  0
   10.0411   -7.1310    0.0000 C   0  0  0  0  0  0  0  0  0  0  0  0
    7.1832   -9.6060    0.0000 O   0  0  0  0  0  0  0  0  0  0  0  0
    5.7543   -7.1310    0.0000 O   0  0  0  0  0  0  0  0  0  0  0  0
    7.1832   -6.3060    0.0000 O   0  0  0  0  0  0  0  0  0  0  0  0
    8.6122   -9.6060    0.0000 O   0  0  0  0  0  0  0  0  0  0  0  0
    8.6122   -7.1310    0.0000 O   0  0  0  0  0  0  0  0  0  0  0  0
    7.8977   -7.5435    0.0000 C   0  0  0  0  0  0  0  0  0  0  0  0
    7.1832   -7.1310    0.0000 C   0  0  0  0  0  0  0  0  0  0  0  0
    6.4688   -7.5435    0.0000 C   0  0  0  0  0  0  0  0  0  0  0  0
    6.4688   -8.3685    0.0000 C   0  0  0  0  0  0  0  0  0  0  0  0
    7.1832   -8.7810    0.0000 C   0  0  0  0  0  0  0  0  0  0  0  0
    7.8977   -8.3685    0.0000 C   0  0  0  0  0  0  0  0  0  0  0  0
    8.6122   -8.7810    0.0000 C   0  0  0  0  0  0  0  0  0  0  0  0
    9.3266   -8.3685    0.0000 C   0  0  0  0  0  0  0  0  0  0  0  0
    9.3266   -7.5435    0.0000 C   0  0  0  0  0  0  0  0  0  0  0  0
    5.0398   -7.5435    0.0000 C   0  0  2  0  0  0  0  0  0  0  0  0
    4.3253   -7.1310    0.0000 O   0  0  0  0  0  0  0  0  0  0  0  0
    3.6109   -7.5435    0.0000 C   0  0  1  0  0  0  0  0  0  0  0  0
    3.6109   -8.3685    0.0000 C   0  0  2  0  0  0  0  0  0  0  0  0
    4.3253   -8.7810    0.0000 C   0  0  1  0  0  0  0  0  0  0  0  0
    5.0398   -8.3685    0.0000 C   0  0  1  0  0  0  0  0  0  0  0  0
    2.8964   -7.1310    0.0000 C   0  0  0  0  0  0  0  0  0  0  0  0
    4.3253   -9.6060    0.0000 O   0  0  0  0  0  0  0  0  0  0  0  0
    2.8964   -8.7810    0.0000 O   0  0  0  0  0  0  0  0  0  0  0  0
    5.7543   -8.7810    0.0000 O   0  0  0  0  0  0  0  0  0  0  0  0
    2.1819   -7.5435    0.0000 O   0  0  0  0  0  0  0  0  0  0  0  0
 22  8  1  0  0  0  0
  6  1  1  0  0  0  0
  5  2  1  0  0  0  0
  8  3  2  0  0  0  0
  4  3  1  0  0  0  0
  5  4  2  0  0  0  0
  6  5  1  0  0  0  0
  7  6  2  0  0  0  0
  8  7  1  0  0  0  0
 18  9  1  0  0  0  0
 16 10  1  0  0  0  0
 15 11  1  0  0  0  0
 20 12  2  0  0  0  0
 22 13  1  0  0  0  0
 14 13  1  0  0  0  0
 19 14  2  0  0  0  0
 15 14  1  0  0  0  0
 16 15  2  0  0  0  0
 17 16  1  0  0  0  0
 18 17  2  0  0  0  0
 19 18  1  0  0  0  0
 20 19  1  0  0  0  0
 21 20  1  0  0  0  0
 22 21  2  0  0  0  0
 23 10  1  1  0  0  0
 23 24  1  0  0  0  0
 24 25  1  0  0  0  0
 25 26  1  0  0  0  0
 26 27  1  0  0  0  0
 27 28  1  0  0  0  0
 28 23  1  0  0  0  0
 25 29  1  1  0  0  0
 27 30  1  1  0  0  0
 26 31  1  6  0  0  0
 28 32  1  6  0  0  0
 29 33  1  0  0  0  0
M  END
>  <cdx:fragmentId>
5

$$$$
