98169.cdx
  Mrv1902 05222410222D          

 47 53  0  0  0  0            999 V2000
    7.2073   -8.0575    0.0000 C   0  0  0  0  0  0  0  0  0  0  0  0
    7.7789   -7.7275    0.0000 O   0  0  0  0  0  0  0  0  0  0  0  0
    7.7789   -7.0675    0.0000 C   0  0  2  0  0  0  0  0  0  0  0  0
    8.3504   -6.7375    0.0000 C   0  0  0  0  0  0  0  0  0  0  0  0
    8.3504   -6.0775    0.0000 C   0  0  0  0  0  0  0  0  0  0  0  0
    7.7789   -5.7475    0.0000 C   0  0  1  0  0  0  0  0  0  0  0  0
    7.2073   -6.0775    0.0000 C   0  0  1  0  0  0  0  0  0  0  0  0
    7.2073   -6.7375    0.0000 C   0  0  2  0  0  0  0  0  0  0  0  0
    8.9220   -7.0675    0.0000 C   0  0  0  0  0  0  0  0  0  0  0  0
    9.4936   -6.7375    0.0000 C   0  0  0  0  0  0  0  0  0  0  0  0
    9.4936   -6.0775    0.0000 C   0  0  0  0  0  0  0  0  0  0  0  0
    8.9220   -5.7475    0.0000 O   0  0  0  0  0  0  0  0  0  0  0  0
    7.2073   -5.4175    0.0000 O   0  0  0  0  0  0  0  0  0  0  0  0
    8.9220   -7.7275    0.0000 O   0  0  0  0  0  0  0  0  0  0  0  0
   10.0652   -5.7475    0.0000 C   0  0  0  0  0  0  0  0  0  0  0  0
   10.6367   -6.0775    0.0000 C   0  0  0  0  0  0  0  0  0  0  0  0
   11.2083   -5.7475    0.0000 C   0  0  0  0  0  0  0  0  0  0  0  0
   11.7799   -6.0775    0.0000 C   0  0  0  0  0  0  0  0  0  0  0  0
   12.3515   -5.7475    0.0000 C   0  0  0  0  0  0  0  0  0  0  0  0
   12.3515   -5.0875    0.0000 C   0  0  0  0  0  0  0  0  0  0  0  0
   11.7799   -4.7575    0.0000 C   0  0  0  0  0  0  0  0  0  0  0  0
   11.2083   -5.0875    0.0000 C   0  0  0  0  0  0  0  0  0  0  0  0
   12.9231   -4.7575    0.0000 O   0  0  0  0  0  0  0  0  0  0  0  0
    6.6357   -7.0675    0.0000 O   0  0  0  0  0  0  0  0  0  0  0  0
   13.4946   -5.0875    0.0000 C   0  0  0  0  0  0  0  0  0  0  0  0
    6.6357   -7.7275    0.0000 C   0  0  0  0  0  0  0  0  0  0  0  0
    6.0641   -8.0575    0.0000 C   0  0  0  0  0  0  0  0  0  0  0  0
    6.0641   -8.7175    0.0000 C   0  0  0  0  0  0  0  0  0  0  0  0
    6.6357   -9.0475    0.0000 C   0  0  0  0  0  0  0  0  0  0  0  0
    7.2073   -8.7175    0.0000 C   0  0  0  0  0  0  0  0  0  0  0  0
    5.4926   -7.7275    0.0000 C   0  0  0  0  0  0  0  0  0  0  0  0
    4.9210   -8.0575    0.0000 C   0  0  0  0  0  0  0  0  0  0  0  0
    4.9210   -8.7175    0.0000 C   0  0  0  0  0  0  0  0  0  0  0  0
    5.4926   -9.0475    0.0000 O   0  0  0  0  0  0  0  0  0  0  0  0
    7.7789   -9.0475    0.0000 O   0  0  0  0  0  0  0  0  0  0  0  0
    5.4926   -7.0675    0.0000 O   0  0  0  0  0  0  0  0  0  0  0  0
    4.3494   -9.0475    0.0000 C   0  0  0  0  0  0  0  0  0  0  0  0
    3.7778   -8.7175    0.0000 C   0  0  0  0  0  0  0  0  0  0  0  0
    3.2062   -9.0475    0.0000 C   0  0  0  0  0  0  0  0  0  0  0  0
    2.6347   -8.7175    0.0000 C   0  0  0  0  0  0  0  0  0  0  0  0
    2.0631   -9.0475    0.0000 C   0  0  0  0  0  0  0  0  0  0  0  0
    2.0631   -9.7075    0.0000 C   0  0  0  0  0  0  0  0  0  0  0  0
    2.6347  -10.0375    0.0000 C   0  0  0  0  0  0  0  0  0  0  0  0
    3.2062   -9.7075    0.0000 C   0  0  0  0  0  0  0  0  0  0  0  0
    1.4915  -10.0375    0.0000 O   0  0  0  0  0  0  0  0  0  0  0  0
    7.7789   -9.7075    0.0000 C   0  0  0  0  0  0  0  0  0  0  0  0
    0.9145   -9.7350    0.0000 C   0  0  0  0  0  0  0  0  0  0  0  0
  1  2  1  0  0  0  0
  3  2  1  1  0  0  0
  3  4  1  0  0  0  0
  4  5  2  0  0  0  0
  5  6  1  0  0  0  0
  6  7  1  0  0  0  0
  7  8  1  0  0  0  0
  8  3  1  0  0  0  0
  4  9  1  0  0  0  0
  9 10  1  0  0  0  0
 10 11  2  0  0  0  0
 11 12  1  0  0  0  0
 12  5  1  0  0  0  0
  7 13  1  1  0  0  0
  6 13  1  1  0  0  0
  9 14  2  0  0  0  0
 11 15  1  0  0  0  0
 15 16  1  0  0  0  0
 16 17  1  0  0  0  0
 17 18  2  0  0  0  0
 18 19  1  0  0  0  0
 19 20  2  0  0  0  0
 20 21  1  0  0  0  0
 21 22  2  0  0  0  0
 22 17  1  0  0  0  0
 20 23  1  0  0  0  0
  8 24  1  1  0  0  0
 23 25  1  0  0  0  0
  1 26  2  0  0  0  0
 26 27  1  0  0  0  0
 27 28  2  0  0  0  0
 28 29  1  0  0  0  0
 29 30  2  0  0  0  0
 30  1  1  0  0  0  0
 27 31  1  0  0  0  0
 31 32  1  0  0  0  0
 32 33  2  0  0  0  0
 33 34  1  0  0  0  0
 34 28  1  0  0  0  0
 30 35  1  0  0  0  0
 31 36  2  0  0  0  0
 33 37  1  0  0  0  0
 37 38  1  0  0  0  0
 38 39  1  0  0  0  0
 39 40  2  0  0  0  0
 40 41  1  0  0  0  0
 41 42  2  0  0  0  0
 42 43  1  0  0  0  0
 43 44  2  0  0  0  0
 44 39  1  0  0  0  0
 42 45  1  0  0  0  0
 35 46  1  0  0  0  0
 45 47  1  0  0  0  0
M  END
>  <cdx:fragmentId>
5

$$$$
