98166.cdx
  Mrv1902 05222410232D          

 48 53  0  0  0  0            999 V2000
    2.9366  -10.1271    0.0000 C   0  0  1  0  0  0  0  0  0  0  0  0
    2.9366   -9.3021    0.0000 C   0  0  0  0  0  0  0  0  0  0  0  0
    3.6511   -8.8896    0.0000 C   0  0  0  0  0  0  0  0  0  0  0  0
    3.6511  -10.5396    0.0000 C   0  0  0  0  0  0  0  0  0  0  0  0
    4.0636  -11.2541    0.0000 C   0  0  0  0  0  0  0  0  0  0  0  0
    3.2386  -11.2541    0.0000 C   0  0  0  0  0  0  0  0  0  0  0  0
    4.3655  -10.1271    0.0000 C   0  0  2  0  0  0  0  0  0  0  0  0
    4.3655  -10.9521    0.0000 H   0  0  0  0  0  0  0  0  0  0  0  0
    5.0800  -10.5396    0.0000 C   0  0  0  0  0  0  0  0  0  0  0  0
    5.7945  -10.1271    0.0000 C   0  0  0  0  0  0  0  0  0  0  0  0
    5.7945   -9.3021    0.0000 C   0  0  1  0  0  0  0  0  0  0  0  0
    5.7945   -8.4771    0.0000 C   0  0  0  0  0  0  0  0  0  0  0  0
    6.5089   -8.8896    0.0000 C   0  0  2  0  0  0  0  0  0  0  0  0
    6.5089   -9.7146    0.0000 C   0  0  0  0  0  0  0  0  0  0  0  0
    7.2234   -9.3021    0.0000 C   0  0  0  0  0  0  0  0  0  0  0  0
    7.9379   -8.8896    0.0000 C   0  0  0  0  0  0  0  0  0  0  0  0
    7.9379   -8.0646    0.0000 C   0  0  1  0  0  0  0  0  0  0  0  0
    8.6524   -8.4771    0.0000 C   0  0  0  0  0  0  0  0  0  0  0  0
    8.6524   -7.6521    0.0000 C   0  0  0  0  0  0  0  0  0  0  0  0
    8.6524   -6.8271    0.0000 C   0  0  0  0  0  0  0  0  0  0  0  0
    7.9379   -6.4146    0.0000 C   0  0  1  0  0  0  0  0  0  0  0  0
    7.9379   -5.5896    0.0000 C   0  0  0  0  0  0  0  0  0  0  0  0
    7.2234   -6.8271    0.0000 C   0  0  2  0  0  0  0  0  0  0  0  0
    6.8109   -6.1127    0.0000 C   0  0  0  0  0  0  0  0  0  0  0  0
    7.2234   -7.6521    0.0000 C   0  0  1  0  0  0  0  0  0  0  0  0
    7.2234   -8.4771    0.0000 H   0  0  0  0  0  0  0  0  0  0  0  0
    6.5089   -8.0646    0.0000 C   0  0  0  0  0  0  0  0  0  0  0  0
    5.7945   -7.6521    0.0000 C   0  0  0  0  0  0  0  0  0  0  0  0
    5.0800   -8.0646    0.0000 C   0  0  0  0  0  0  0  0  0  0  0  0
    5.0800   -8.8896    0.0000 C   0  0  2  0  0  0  0  0  0  0  0  0
    4.3655   -9.3021    0.0000 C   0  0  1  0  0  0  0  0  0  0  0  0
    4.3655   -8.4771    0.0000 C   0  0  0  0  0  0  0  0  0  0  0  0
    8.6524   -9.3021    0.0000 O   0  0  0  0  0  0  0  0  0  0  0  0
    6.3984   -6.8271    0.0000 O   0  0  0  0  0  0  0  0  0  0  0  0
    2.2221  -10.5396    0.0000 O   0  0  0  0  0  0  0  0  0  0  0  0
    5.0800   -9.7146    0.0000 H   0  0  0  0  0  0  0  0  0  0  0  0
   11.5080  -10.9538    0.0000 O   0  0  0  0  0  0  0  0  0  0  0  0
   10.7938  -10.5408    0.0000 C   0  0  0  0  0  0  0  0  0  0  0  0
   10.0803   -9.3027    0.0000 O   0  0  0  0  0  0  0  0  0  0  0  0
   10.7945   -9.7158    0.0000 C   0  0  1  0  0  0  0  0  0  0  0  0
   12.2234   -9.7169    0.0000 O   0  0  0  0  0  0  0  0  0  0  0  0
   11.5093   -9.3038    0.0000 C   0  0  1  0  0  0  0  0  0  0  0  0
   12.2247   -8.0669    0.0000 O   0  0  0  0  0  0  0  0  0  0  0  0
   11.5099   -8.4788    0.0000 C   0  0  2  0  0  0  0  0  0  0  0  0
   10.7964   -7.2408    0.0000 O   0  0  0  0  0  0  0  0  0  0  0  0
   10.7958   -8.0658    0.0000 C   0  0  1  0  0  0  0  0  0  0  0  0
   10.0810   -8.4777    0.0000 C   0  0  2  0  0  0  0  0  0  0  0  0
    9.3668   -8.0646    0.0000 O   0  0  0  0  0  0  0  0  0  0  0  0
 47 48  1  1  0  0  0
 47 39  1  0  0  0  0
 38 37  1  0  0  0  0
 40 38  1  1  0  0  0
 40 39  1  0  0  0  0
 42 40  1  0  0  0  0
 42 41  1  6  0  0  0
 44 42  1  0  0  0  0
 44 43  1  1  0  0  0
 46 44  1  0  0  0  0
 46 45  1  6  0  0  0
 47 46  1  0  0  0  0
  1  2  1  0  0  0  0
  2  3  1  0  0  0  0
  1  4  1  0  0  0  0
  4  5  1  0  0  0  0
  4  6  1  0  0  0  0
  4  7  1  0  0  0  0
  7  8  1  6  0  0  0
  7  9  1  0  0  0  0
  9 10  1  0  0  0  0
 10 11  1  0  0  0  0
 11 12  1  1  0  0  0
 11 13  1  0  0  0  0
 13 14  1  6  0  0  0
 13 15  1  0  0  0  0
 15 16  1  0  0  0  0
 16 17  1  0  0  0  0
 17 18  1  1  0  0  0
 17 19  1  0  0  0  0
 19 20  1  0  0  0  0
 20 21  1  0  0  0  0
 21 22  1  6  0  0  0
 21 23  1  0  0  0  0
 23 24  1  1  0  0  0
 23 25  1  0  0  0  0
 25 26  1  1  0  0  0
 17 25  1  0  0  0  0
 25 27  1  0  0  0  0
 13 27  1  0  0  0  0
 27 28  2  0  0  0  0
 28 29  1  0  0  0  0
 29 30  1  0  0  0  0
 11 30  1  0  0  0  0
 30 31  1  0  0  0  0
  3 31  1  0  0  0  0
  7 31  1  0  0  0  0
 31 32  1  1  0  0  0
 18 33  2  0  0  0  0
 18 48  1  0  0  0  0
 23 34  1  6  0  0  0
  1 35  1  1  0  0  0
 30 36  1  6  0  0  0
M  END
>  <cdx:fragmentId>
5

$$$$
