98165.cdx
  Mrv1902 05222410242D          

 36 37  0  0  0  0            999 V2000
    2.2570   -8.1841    0.0000 C   0  0  0  0  0  0  0  0  0  0  0  0
    2.2570   -9.0091    0.0000 C   0  0  0  0  0  0  0  0  0  0  0  0
    2.9714   -9.4216    0.0000 C   0  0  0  0  0  0  0  0  0  0  0  0
    3.6859   -9.0091    0.0000 C   0  0  0  0  0  0  0  0  0  0  0  0
    3.6859   -8.1841    0.0000 C   0  0  0  0  0  0  0  0  0  0  0  0
    2.9714   -7.7716    0.0000 C   0  0  0  0  0  0  0  0  0  0  0  0
    4.4004   -7.7716    0.0000 C   0  0  0  0  0  0  0  0  0  0  0  0
    5.1148   -8.1841    0.0000 C   0  0  0  0  0  0  0  0  0  0  0  0
    5.8293   -7.7716    0.0000 C   0  0  0  0  0  0  0  0  0  0  0  0
    6.5438   -8.1841    0.0000 O   0  0  0  0  0  0  0  0  0  0  0  0
    5.8293   -6.9466    0.0000 O   0  0  0  0  0  0  0  0  0  0  0  0
    1.5425   -7.7716    0.0000 O   0  0  0  0  0  0  0  0  0  0  0  0
    0.8280   -8.1841    0.0000 C   0  0  0  0  0  0  0  0  0  0  0  0
    1.5425   -9.4216    0.0000 O   0  0  0  0  0  0  0  0  0  0  0  0
    7.2471   -7.7854    0.0000 C   0  0  0  0  0  0  0  0  0  0  0  0
    7.2471   -9.4354    0.0000 O   0  0  0  0  0  0  0  0  0  0  0  0
    8.6761  -10.2604    0.0000 O   0  0  0  0  0  0  0  0  0  0  0  0
   10.1050   -9.4354    0.0000 O   0  0  0  0  0  0  0  0  0  0  0  0
    8.6761   -7.7854    0.0000 O   0  0  0  0  0  0  0  0  0  0  0  0
    7.9616   -8.1979    0.0000 C   0  0  1  0  0  0  0  0  0  0  0  0
    7.9616   -9.0229    0.0000 C   0  0  2  0  0  0  0  0  0  0  0  0
    8.6761   -9.4354    0.0000 C   0  0  1  0  0  0  0  0  0  0  0  0
    9.3906   -9.0229    0.0000 C   0  0  2  0  0  0  0  0  0  0  0  0
    9.3906   -8.1979    0.0000 C   0  0  2  0  0  0  0  0  0  0  0  0
   10.1050   -7.7854    0.0000 O   0  0  0  0  0  0  0  0  0  0  0  0
   11.5340   -6.9604    0.0000 O   0  0  0  0  0  0  0  0  0  0  0  0
   10.8195   -8.1979    0.0000 C   0  0  0  0  0  0  0  0  0  0  0  0
   12.2484   -9.0229    0.0000 O   0  0  0  0  0  0  0  0  0  0  0  0
   11.5340   -7.7854    0.0000 C   0  0  0  0  0  0  0  0  0  0  0  0
   12.9629   -6.9604    0.0000 O   0  0  0  0  0  0  0  0  0  0  0  0
   12.2484   -8.1979    0.0000 C   0  0  0  0  0  0  0  0  0  0  0  0
   13.6774   -9.0229    0.0000 O   0  0  0  0  0  0  0  0  0  0  0  0
   12.9629   -7.7854    0.0000 C   0  0  0  0  0  0  0  0  0  0  0  0
   13.6774   -8.1979    0.0000 C   0  0  0  0  0  0  0  0  0  0  0  0
   14.3919   -7.7854    0.0000 C   0  0  0  0  0  0  0  0  0  0  0  0
   15.1063   -8.1979    0.0000 O   0  0  0  0  0  0  0  0  0  0  0  0
  1  2  2  0  0  0  0
  2  3  1  0  0  0  0
  3  4  2  0  0  0  0
  4  5  1  0  0  0  0
  5  6  2  0  0  0  0
  6  1  1  0  0  0  0
  5  7  1  0  0  0  0
  7  8  2  0  0  0  0
  8  9  1  0  0  0  0
  9 10  1  0  0  0  0
  9 11  2  0  0  0  0
  1 12  1  0  0  0  0
 12 13  1  0  0  0  0
  2 14  1  0  0  0  0
 20 15  1  1  0  0  0
 21 16  1  6  0  0  0
 22 17  1  1  0  0  0
 23 18  1  6  0  0  0
 19 24  1  0  0  0  0
 20 19  1  0  0  0  0
 21 20  1  0  0  0  0
 22 21  1  0  0  0  0
 23 22  1  0  0  0  0
 24 23  1  0  0  0  0
 24 25  1  1  0  0  0
 27 25  1  0  0  0  0
 29 26  1  0  0  0  0
 29 27  1  0  0  0  0
 31 28  1  0  0  0  0
 31 29  1  0  0  0  0
 33 30  1  0  0  0  0
 33 31  1  0  0  0  0
 34 32  1  0  0  0  0
 34 33  1  0  0  0  0
 35 34  1  0  0  0  0
 36 35  1  0  0  0  0
 15 10  1  0  0  0  0
M  END
>  <cdx:fragmentId>
37

$$$$
