98168.cdx
  Mrv1902 05222410222D          

 47 54  0  0  0  0            999 V2000
    2.0208  -10.9587    0.0000 C   0  0  0  0  0  0  0  0  0  0  0  0
    2.0208  -11.7012    0.0000 C   0  0  0  0  0  0  0  0  0  0  0  0
    2.6638  -12.0725    0.0000 C   0  0  0  0  0  0  0  0  0  0  0  0
    3.3068  -11.7012    0.0000 C   0  0  0  0  0  0  0  0  0  0  0  0
    3.3068  -10.9587    0.0000 C   0  0  0  0  0  0  0  0  0  0  0  0
    2.6638  -10.5875    0.0000 C   0  0  0  0  0  0  0  0  0  0  0  0
    1.3778  -12.0725    0.0000 O   0  0  0  0  0  0  0  0  0  0  0  0
    3.9499  -10.5875    0.0000 C   0  0  0  0  0  0  0  0  0  0  0  0
    3.9499   -9.8450    0.0000 C   0  0  0  0  0  0  0  0  0  0  0  0
    4.5929   -9.4737    0.0000 C   0  0  0  0  0  0  0  0  0  0  0  0
    5.2359   -9.8450    0.0000 C   0  0  0  0  0  0  0  0  0  0  0  0
    5.8789   -9.4737    0.0000 C   0  0  0  0  0  0  0  0  0  0  0  0
    5.8789   -8.7312    0.0000 C   0  0  0  0  0  0  0  0  0  0  0  0
    5.2359   -8.3600    0.0000 C   0  0  0  0  0  0  0  0  0  0  0  0
    4.5929   -8.7312    0.0000 O   0  0  0  0  0  0  0  0  0  0  0  0
    6.5220   -8.3600    0.0000 C   0  0  2  0  0  0  0  0  0  0  0  0
    6.5220   -7.6175    0.0000 C   0  0  1  0  0  0  0  0  0  0  0  0
    5.8789   -7.2462    0.0000 C   0  0  1  0  0  0  0  0  0  0  0  0
    5.2359   -7.6175    0.0000 C   0  0  2  0  0  0  0  0  0  0  0  0
    6.5220   -9.8450    0.0000 O   0  0  0  0  0  0  0  0  0  0  0  0
    7.1650   -8.7312    0.0000 O   0  0  0  0  0  0  0  0  0  0  0  0
    7.1650   -7.2462    0.0000 O   0  0  0  0  0  0  0  0  0  0  0  0
    5.2359   -6.8750    0.0000 O   0  0  0  0  0  0  0  0  0  0  0  0
    7.1650   -6.5038    0.0000 C   0  0  2  0  0  0  0  0  0  0  0  0
    7.8080   -6.1325    0.0000 C   0  0  0  0  0  0  0  0  0  0  0  0
    7.8080   -5.3900    0.0000 C   0  0  0  0  0  0  0  0  0  0  0  0
    7.1650   -5.0187    0.0000 C   0  0  1  0  0  0  0  0  0  0  0  0
    6.5220   -5.3900    0.0000 C   0  0  1  0  0  0  0  0  0  0  0  0
    6.5220   -6.1325    0.0000 C   0  0  2  0  0  0  0  0  0  0  0  0
    8.4510   -6.5038    0.0000 C   0  0  0  0  0  0  0  0  0  0  0  0
    9.0940   -6.1325    0.0000 C   0  0  0  0  0  0  0  0  0  0  0  0
    9.0940   -5.3900    0.0000 C   0  0  0  0  0  0  0  0  0  0  0  0
    8.4510   -5.0187    0.0000 O   0  0  0  0  0  0  0  0  0  0  0  0
    6.5220   -4.6475    0.0000 O   0  0  0  0  0  0  0  0  0  0  0  0
    8.4510   -7.2462    0.0000 O   0  0  0  0  0  0  0  0  0  0  0  0
    9.7371   -5.0187    0.0000 C   0  0  0  0  0  0  0  0  0  0  0  0
   10.3801   -5.3900    0.0000 C   0  0  0  0  0  0  0  0  0  0  0  0
   11.0231   -5.0187    0.0000 C   0  0  0  0  0  0  0  0  0  0  0  0
   11.6661   -5.3900    0.0000 C   0  0  0  0  0  0  0  0  0  0  0  0
   12.3092   -5.0187    0.0000 C   0  0  0  0  0  0  0  0  0  0  0  0
   12.3092   -4.2762    0.0000 C   0  0  0  0  0  0  0  0  0  0  0  0
   11.6661   -3.9050    0.0000 C   0  0  0  0  0  0  0  0  0  0  0  0
   11.0231   -4.2762    0.0000 C   0  0  0  0  0  0  0  0  0  0  0  0
   12.9522   -3.9050    0.0000 O   0  0  0  0  0  0  0  0  0  0  0  0
    5.8789   -6.5038    0.0000 O   0  0  0  0  0  0  0  0  0  0  0  0
    0.7347  -11.7012    0.0000 C   0  0  0  0  0  0  0  0  0  0  0  0
   13.5952   -4.2762    0.0000 C   0  0  0  0  0  0  0  0  0  0  0  0
  1  2  2  0  0  0  0
  2  3  1  0  0  0  0
  3  4  2  0  0  0  0
  4  5  1  0  0  0  0
  5  6  2  0  0  0  0
  6  1  1  0  0  0  0
  2  7  1  0  0  0  0
  5  8  1  0  0  0  0
  8  9  1  0  0  0  0
  9 10  1  0  0  0  0
 10 11  2  0  0  0  0
 11 12  1  0  0  0  0
 12 13  1  0  0  0  0
 13 14  2  0  0  0  0
 14 15  1  0  0  0  0
 15 10  1  0  0  0  0
 13 16  1  0  0  0  0
 16 17  1  0  0  0  0
 17 18  1  0  0  0  0
 18 19  1  0  0  0  0
 19 14  1  0  0  0  0
 12 20  2  0  0  0  0
 16 21  1  6  0  0  0
 17 22  1  1  0  0  0
 18 23  1  1  0  0  0
 19 23  1  1  0  0  0
 24 22  1  1  0  0  0
 24 25  1  0  0  0  0
 25 26  2  0  0  0  0
 26 27  1  0  0  0  0
 27 28  1  0  0  0  0
 28 29  1  0  0  0  0
 29 24  1  0  0  0  0
 25 30  1  0  0  0  0
 30 31  1  0  0  0  0
 31 32  2  0  0  0  0
 32 33  1  0  0  0  0
 33 26  1  0  0  0  0
 28 34  1  1  0  0  0
 27 34  1  1  0  0  0
 30 35  2  0  0  0  0
 32 36  1  0  0  0  0
 36 37  1  0  0  0  0
 37 38  1  0  0  0  0
 38 39  2  0  0  0  0
 39 40  1  0  0  0  0
 40 41  2  0  0  0  0
 41 42  1  0  0  0  0
 42 43  2  0  0  0  0
 43 38  1  0  0  0  0
 41 44  1  0  0  0  0
 29 45  1  1  0  0  0
  7 46  1  0  0  0  0
 44 47  1  0  0  0  0
M  END
>  <cdx:fragmentId>
5

$$$$
