98171.cdx
  Mrv1902 05222410242D          

 43 49  0  0  0  0            999 V2000
    6.7260   -8.8688    0.0000 C   0  0  0  0  0  0  0  0  0  0  0  0
    7.2976   -8.5388    0.0000 O   0  0  0  0  0  0  0  0  0  0  0  0
    7.2976   -7.8788    0.0000 C   0  0  2  0  0  0  0  0  0  0  0  0
    7.8692   -7.5488    0.0000 C   0  0  0  0  0  0  0  0  0  0  0  0
    7.8692   -6.8888    0.0000 C   0  0  0  0  0  0  0  0  0  0  0  0
    7.2976   -6.5587    0.0000 C   0  0  1  0  0  0  0  0  0  0  0  0
    6.7260   -6.8888    0.0000 C   0  0  1  0  0  0  0  0  0  0  0  0
    6.7260   -7.5488    0.0000 C   0  0  2  0  0  0  0  0  0  0  0  0
    8.4408   -7.8788    0.0000 C   0  0  0  0  0  0  0  0  0  0  0  0
    9.0123   -7.5488    0.0000 C   0  0  0  0  0  0  0  0  0  0  0  0
    9.0123   -6.8888    0.0000 C   0  0  0  0  0  0  0  0  0  0  0  0
    8.4408   -6.5587    0.0000 O   0  0  0  0  0  0  0  0  0  0  0  0
    6.7260   -6.2287    0.0000 O   0  0  0  0  0  0  0  0  0  0  0  0
    8.4408   -8.5388    0.0000 O   0  0  0  0  0  0  0  0  0  0  0  0
    9.5839   -6.5587    0.0000 C   0  0  0  0  0  0  0  0  0  0  0  0
   10.1555   -6.8888    0.0000 C   0  0  0  0  0  0  0  0  0  0  0  0
   10.7271   -6.5587    0.0000 C   0  0  0  0  0  0  0  0  0  0  0  0
   11.2986   -6.8887    0.0000 C   0  0  0  0  0  0  0  0  0  0  0  0
   11.8702   -6.5587    0.0000 C   0  0  0  0  0  0  0  0  0  0  0  0
   11.8702   -5.8988    0.0000 C   0  0  0  0  0  0  0  0  0  0  0  0
   11.2986   -5.5687    0.0000 C   0  0  0  0  0  0  0  0  0  0  0  0
   10.7271   -5.8988    0.0000 C   0  0  0  0  0  0  0  0  0  0  0  0
    6.1545   -7.8788    0.0000 O   0  0  0  0  0  0  0  0  0  0  0  0
    6.1545   -8.5388    0.0000 C   0  0  0  0  0  0  0  0  0  0  0  0
    5.5829   -8.8688    0.0000 C   0  0  0  0  0  0  0  0  0  0  0  0
    5.5829   -9.5287    0.0000 C   0  0  0  0  0  0  0  0  0  0  0  0
    6.1545   -9.8588    0.0000 C   0  0  0  0  0  0  0  0  0  0  0  0
    6.7260   -9.5287    0.0000 C   0  0  0  0  0  0  0  0  0  0  0  0
    5.0113   -8.5388    0.0000 C   0  0  0  0  0  0  0  0  0  0  0  0
    4.4397   -8.8688    0.0000 C   0  0  0  0  0  0  0  0  0  0  0  0
    4.4397   -9.5287    0.0000 C   0  0  0  0  0  0  0  0  0  0  0  0
    5.0113   -9.8588    0.0000 O   0  0  0  0  0  0  0  0  0  0  0  0
    7.2976   -9.8588    0.0000 O   0  0  0  0  0  0  0  0  0  0  0  0
    5.0113   -7.8788    0.0000 O   0  0  0  0  0  0  0  0  0  0  0  0
    3.8681   -9.8588    0.0000 C   0  0  0  0  0  0  0  0  0  0  0  0
    3.2966   -9.5287    0.0000 C   0  0  0  0  0  0  0  0  0  0  0  0
    2.7250   -9.8588    0.0000 C   0  0  0  0  0  0  0  0  0  0  0  0
    2.1534   -9.5287    0.0000 C   0  0  0  0  0  0  0  0  0  0  0  0
    1.5818   -9.8588    0.0000 C   0  0  0  0  0  0  0  0  0  0  0  0
    1.5818  -10.5188    0.0000 C   0  0  0  0  0  0  0  0  0  0  0  0
    2.1534  -10.8488    0.0000 C   0  0  0  0  0  0  0  0  0  0  0  0
    2.7250  -10.5188    0.0000 C   0  0  0  0  0  0  0  0  0  0  0  0
    7.2976  -10.5188    0.0000 C   0  0  0  0  0  0  0  0  0  0  0  0
  1  2  1  0  0  0  0
  3  2  1  1  0  0  0
  3  4  1  0  0  0  0
  4  5  2  0  0  0  0
  5  6  1  0  0  0  0
  6  7  1  0  0  0  0
  7  8  1  0  0  0  0
  8  3  1  0  0  0  0
  4  9  1  0  0  0  0
  9 10  1  0  0  0  0
 10 11  2  0  0  0  0
 11 12  1  0  0  0  0
 12  5  1  0  0  0  0
  7 13  1  1  0  0  0
  6 13  1  1  0  0  0
  9 14  2  0  0  0  0
 11 15  1  0  0  0  0
 15 16  1  0  0  0  0
 16 17  1  0  0  0  0
 17 18  2  0  0  0  0
 18 19  1  0  0  0  0
 19 20  2  0  0  0  0
 20 21  1  0  0  0  0
 21 22  2  0  0  0  0
 22 17  1  0  0  0  0
  8 23  1  1  0  0  0
  1 24  2  0  0  0  0
 24 25  1  0  0  0  0
 25 26  2  0  0  0  0
 26 27  1  0  0  0  0
 27 28  2  0  0  0  0
 28  1  1  0  0  0  0
 25 29  1  0  0  0  0
 29 30  1  0  0  0  0
 30 31  2  0  0  0  0
 31 32  1  0  0  0  0
 32 26  1  0  0  0  0
 28 33  1  0  0  0  0
 29 34  2  0  0  0  0
 31 35  1  0  0  0  0
 35 36  1  0  0  0  0
 36 37  1  0  0  0  0
 37 38  2  0  0  0  0
 38 39  1  0  0  0  0
 39 40  2  0  0  0  0
 40 41  1  0  0  0  0
 41 42  2  0  0  0  0
 42 37  1  0  0  0  0
 33 43  1  0  0  0  0
M  END
>  <cdx:fragmentId>
5

$$$$
