98173.cdx
  Mrv1902 05222410232D          

 45 51  0  0  0  0            999 V2000
    6.7794   -8.0300    0.0000 O   0  0  0  0  0  0  0  0  0  0  0  0
    6.7794   -7.2050    0.0000 C   0  0  2  0  0  0  0  0  0  0  0  0
    7.4939   -6.7925    0.0000 C   0  0  0  0  0  0  0  0  0  0  0  0
    7.4939   -5.9675    0.0000 C   0  0  0  0  0  0  0  0  0  0  0  0
    6.7794   -5.5550    0.0000 C   0  0  1  0  0  0  0  0  0  0  0  0
    6.0650   -5.9675    0.0000 C   0  0  1  0  0  0  0  0  0  0  0  0
    6.0650   -6.7925    0.0000 C   0  0  2  0  0  0  0  0  0  0  0  0
    8.2084   -7.2050    0.0000 C   0  0  0  0  0  0  0  0  0  0  0  0
    8.9229   -6.7925    0.0000 C   0  0  0  0  0  0  0  0  0  0  0  0
    8.9229   -5.9675    0.0000 C   0  0  0  0  0  0  0  0  0  0  0  0
    8.2084   -5.5550    0.0000 O   0  0  0  0  0  0  0  0  0  0  0  0
    6.0650   -5.1425    0.0000 O   0  0  0  0  0  0  0  0  0  0  0  0
    8.2084   -8.0300    0.0000 O   0  0  0  0  0  0  0  0  0  0  0  0
    9.6373   -5.5550    0.0000 C   0  0  0  0  0  0  0  0  0  0  0  0
   10.3518   -5.9675    0.0000 C   0  0  0  0  0  0  0  0  0  0  0  0
   11.0663   -5.5550    0.0000 C   0  0  0  0  0  0  0  0  0  0  0  0
   11.7807   -5.9675    0.0000 C   0  0  0  0  0  0  0  0  0  0  0  0
   12.4952   -5.5550    0.0000 C   0  0  0  0  0  0  0  0  0  0  0  0
   12.4952   -4.7300    0.0000 C   0  0  0  0  0  0  0  0  0  0  0  0
   11.7807   -4.3175    0.0000 C   0  0  0  0  0  0  0  0  0  0  0  0
   11.0663   -4.7300    0.0000 C   0  0  0  0  0  0  0  0  0  0  0  0
   13.2097   -4.3175    0.0000 O   0  0  0  0  0  0  0  0  0  0  0  0
    5.3505   -7.2050    0.0000 O   0  0  0  0  0  0  0  0  0  0  0  0
   13.9242   -4.7300    0.0000 C   0  0  0  0  0  0  0  0  0  0  0  0
    6.7794   -8.8550    0.0000 C   0  0  0  0  0  0  0  0  0  0  0  0
    6.0650   -9.2675    0.0000 C   0  0  0  0  0  0  0  0  0  0  0  0
    6.0650  -10.0925    0.0000 C   0  0  0  0  0  0  0  0  0  0  0  0
    6.7794  -10.5050    0.0000 C   0  0  0  0  0  0  0  0  0  0  0  0
    7.4939  -10.0925    0.0000 C   0  0  0  0  0  0  0  0  0  0  0  0
    7.4939   -9.2675    0.0000 C   0  0  0  0  0  0  0  0  0  0  0  0
    8.2084   -8.8550    0.0000 O   0  0  0  0  0  0  0  0  0  0  0  0
    8.9229   -9.2675    0.0000 C   0  0  0  0  0  0  0  0  0  0  0  0
    5.3505   -8.8550    0.0000 O   0  0  0  0  0  0  0  0  0  0  0  0
    4.6360   -9.2675    0.0000 C   0  0  0  0  0  0  0  0  0  0  0  0
    4.6360  -10.0925    0.0000 C   0  0  0  0  0  0  0  0  0  0  0  0
    5.3505  -10.5050    0.0000 C   0  0  0  0  0  0  0  0  0  0  0  0
    5.3505  -11.3300    0.0000 O   0  0  0  0  0  0  0  0  0  0  0  0
    3.9216   -8.8550    0.0000 C   0  0  0  0  0  0  0  0  0  0  0  0
    3.2071   -9.2675    0.0000 C   0  0  0  0  0  0  0  0  0  0  0  0
    2.4926   -8.8550    0.0000 C   0  0  0  0  0  0  0  0  0  0  0  0
    2.4926   -8.0300    0.0000 C   0  0  0  0  0  0  0  0  0  0  0  0
    1.7781   -7.6175    0.0000 C   0  0  0  0  0  0  0  0  0  0  0  0
    1.0637   -8.0300    0.0000 C   0  0  0  0  0  0  0  0  0  0  0  0
    1.0637   -8.8550    0.0000 C   0  0  0  0  0  0  0  0  0  0  0  0
    1.7781   -9.2675    0.0000 C   0  0  0  0  0  0  0  0  0  0  0  0
  2  1  1  1  0  0  0
  2  3  1  0  0  0  0
  3  4  2  0  0  0  0
  4  5  1  0  0  0  0
  5  6  1  0  0  0  0
  6  7  1  0  0  0  0
  7  2  1  0  0  0  0
  3  8  1  0  0  0  0
  8  9  1  0  0  0  0
  9 10  2  0  0  0  0
 10 11  1  0  0  0  0
 11  4  1  0  0  0  0
  6 12  1  1  0  0  0
  5 12  1  1  0  0  0
  8 13  2  0  0  0  0
 10 14  1  0  0  0  0
 14 15  1  0  0  0  0
 15 16  1  0  0  0  0
 16 17  2  0  0  0  0
 17 18  1  0  0  0  0
 18 19  2  0  0  0  0
 19 20  1  0  0  0  0
 20 21  2  0  0  0  0
 21 16  1  0  0  0  0
 19 22  1  0  0  0  0
  7 23  1  1  0  0  0
 22 24  1  0  0  0  0
  1 25  1  0  0  0  0
 25 26  2  0  0  0  0
 26 27  1  0  0  0  0
 27 28  2  0  0  0  0
 28 29  1  0  0  0  0
 29 30  2  0  0  0  0
 30 25  1  0  0  0  0
 30 31  1  0  0  0  0
 31 32  1  0  0  0  0
 26 33  1  0  0  0  0
 33 34  1  0  0  0  0
 34 35  2  0  0  0  0
 35 36  1  0  0  0  0
 36 27  1  0  0  0  0
 36 37  2  0  0  0  0
 34 38  1  0  0  0  0
 38 39  1  0  0  0  0
 39 40  1  0  0  0  0
 40 41  2  0  0  0  0
 41 42  1  0  0  0  0
 42 43  2  0  0  0  0
 43 44  1  0  0  0  0
 44 45  2  0  0  0  0
 45 40  1  0  0  0  0
M  END
>  <cdx:fragmentId>
5

$$$$
