98172.cdx
  Mrv1902 05222410232D          

 47 53  0  0  0  0            999 V2000
    7.1385   -8.4150    0.0000 C   0  0  0  0  0  0  0  0  0  0  0  0
    7.7101   -8.0850    0.0000 O   0  0  0  0  0  0  0  0  0  0  0  0
    7.7101   -7.4250    0.0000 C   0  0  2  0  0  0  0  0  0  0  0  0
    8.2817   -7.0950    0.0000 C   0  0  0  0  0  0  0  0  0  0  0  0
    8.2817   -6.4350    0.0000 C   0  0  0  0  0  0  0  0  0  0  0  0
    7.7101   -6.1050    0.0000 C   0  0  1  0  0  0  0  0  0  0  0  0
    7.1385   -6.4350    0.0000 C   0  0  1  0  0  0  0  0  0  0  0  0
    7.1385   -7.0950    0.0000 C   0  0  2  0  0  0  0  0  0  0  0  0
    8.8533   -7.4250    0.0000 C   0  0  0  0  0  0  0  0  0  0  0  0
    9.4248   -7.0950    0.0000 C   0  0  0  0  0  0  0  0  0  0  0  0
    9.4248   -6.4350    0.0000 C   0  0  0  0  0  0  0  0  0  0  0  0
    8.8533   -6.1050    0.0000 O   0  0  0  0  0  0  0  0  0  0  0  0
    7.1385   -5.7750    0.0000 O   0  0  0  0  0  0  0  0  0  0  0  0
    8.8533   -8.0850    0.0000 O   0  0  0  0  0  0  0  0  0  0  0  0
    9.9964   -6.1050    0.0000 C   0  0  0  0  0  0  0  0  0  0  0  0
   10.5680   -6.4350    0.0000 C   0  0  0  0  0  0  0  0  0  0  0  0
   11.1396   -6.1050    0.0000 C   0  0  0  0  0  0  0  0  0  0  0  0
   11.7111   -6.4350    0.0000 C   0  0  0  0  0  0  0  0  0  0  0  0
   12.2827   -6.1050    0.0000 C   0  0  0  0  0  0  0  0  0  0  0  0
   12.2827   -5.4450    0.0000 C   0  0  0  0  0  0  0  0  0  0  0  0
   11.7111   -5.1150    0.0000 C   0  0  0  0  0  0  0  0  0  0  0  0
   11.1396   -5.4450    0.0000 C   0  0  0  0  0  0  0  0  0  0  0  0
   12.8543   -5.1150    0.0000 O   0  0  0  0  0  0  0  0  0  0  0  0
    6.5670   -7.4250    0.0000 O   0  0  0  0  0  0  0  0  0  0  0  0
   13.4259   -5.4450    0.0000 C   0  0  0  0  0  0  0  0  0  0  0  0
    6.5670   -8.0850    0.0000 C   0  0  0  0  0  0  0  0  0  0  0  0
    5.9954   -8.4150    0.0000 C   0  0  0  0  0  0  0  0  0  0  0  0
    5.9954   -9.0750    0.0000 C   0  0  0  0  0  0  0  0  0  0  0  0
    6.5670   -9.4050    0.0000 C   0  0  0  0  0  0  0  0  0  0  0  0
    7.1385   -9.0750    0.0000 C   0  0  0  0  0  0  0  0  0  0  0  0
    4.8522   -9.0750    0.0000 C   0  0  0  0  0  0  0  0  0  0  0  0
    5.4238   -9.4050    0.0000 C   0  0  0  0  0  0  0  0  0  0  0  0
    7.7101   -9.4050    0.0000 O   0  0  0  0  0  0  0  0  0  0  0  0
    4.2806   -9.4050    0.0000 C   0  0  0  0  0  0  0  0  0  0  0  0
    3.7091   -9.0750    0.0000 O   0  0  0  0  0  0  0  0  0  0  0  0
    3.1375   -9.4050    0.0000 C   0  0  0  0  0  0  0  0  0  0  0  0
    2.5659   -9.0750    0.0000 C   0  0  0  0  0  0  0  0  0  0  0  0
    1.9943   -9.4050    0.0000 C   0  0  0  0  0  0  0  0  0  0  0  0
    1.9943  -10.0650    0.0000 C   0  0  0  0  0  0  0  0  0  0  0  0
    2.5659  -10.3950    0.0000 C   0  0  0  0  0  0  0  0  0  0  0  0
    3.1375  -10.0650    0.0000 C   0  0  0  0  0  0  0  0  0  0  0  0
    7.7101  -10.0650    0.0000 C   0  0  0  0  0  0  0  0  0  0  0  0
    4.2806  -10.0650    0.0000 C   0  0  0  0  0  0  0  0  0  0  0  0
    3.7091  -10.3950    0.0000 C   0  0  0  0  0  0  0  0  0  0  0  0
    3.7091  -11.0550    0.0000 O   0  0  0  0  0  0  0  0  0  0  0  0
    1.4228   -9.0750    0.0000 O   0  0  0  0  0  0  0  0  0  0  0  0
    0.8595   -9.3362    0.0000 C   0  0  0  0  0  0  0  0  0  0  0  0
  1  2  1  0  0  0  0
  3  2  1  1  0  0  0
  3  4  1  0  0  0  0
  4  5  2  0  0  0  0
  5  6  1  0  0  0  0
  6  7  1  0  0  0  0
  7  8  1  0  0  0  0
  8  3  1  0  0  0  0
  4  9  1  0  0  0  0
  9 10  1  0  0  0  0
 10 11  2  0  0  0  0
 11 12  1  0  0  0  0
 12  5  1  0  0  0  0
  7 13  1  1  0  0  0
  6 13  1  1  0  0  0
  9 14  2  0  0  0  0
 11 15  1  0  0  0  0
 15 16  1  0  0  0  0
 16 17  1  0  0  0  0
 17 18  2  0  0  0  0
 18 19  1  0  0  0  0
 19 20  2  0  0  0  0
 20 21  1  0  0  0  0
 21 22  2  0  0  0  0
 22 17  1  0  0  0  0
 20 23  1  0  0  0  0
  8 24  1  1  0  0  0
 23 25  1  0  0  0  0
  1 26  2  0  0  0  0
 26 27  1  0  0  0  0
 27 28  2  0  0  0  0
 28 29  1  0  0  0  0
 29 30  2  0  0  0  0
 30  1  1  0  0  0  0
 31 32  1  0  0  0  0
 32 28  1  0  0  0  0
 30 33  1  0  0  0  0
 31 34  1  0  0  0  0
 34 35  1  0  0  0  0
 35 36  1  0  0  0  0
 36 37  2  0  0  0  0
 37 38  1  0  0  0  0
 38 39  2  0  0  0  0
 39 40  1  0  0  0  0
 40 41  2  0  0  0  0
 41 36  1  0  0  0  0
 33 42  1  0  0  0  0
 34 43  2  0  0  0  0
 41 44  1  0  0  0  0
 44 43  1  0  0  0  0
 44 45  2  0  0  0  0
 38 46  1  0  0  0  0
 46 47  1  0  0  0  0
M  END
>  <cdx:fragmentId>
5

$$$$
