98178.cdx
  Mrv1902 05222410212D          

 16 16  0  0  0  0            999 V2000
    5.4087   -7.9063    0.0000 C   0  0  0  0  0  0  0  0  0  0  0  0
    5.4087   -8.7313    0.0000 C   0  0  0  0  0  0  0  0  0  0  0  0
    6.1231   -9.1438    0.0000 C   0  0  0  0  0  0  0  0  0  0  0  0
    6.8376   -8.7313    0.0000 C   0  0  0  0  0  0  0  0  0  0  0  0
    6.8376   -7.9063    0.0000 C   0  0  1  0  0  0  0  0  0  0  0  0
    6.1231   -7.4937    0.0000 C   0  0  1  0  0  0  0  0  0  0  0  0
    4.6942   -9.1438    0.0000 O   0  0  0  0  0  0  0  0  0  0  0  0
    7.5521   -9.1438    0.0000 C   0  0  0  0  0  0  0  0  0  0  0  0
    7.5521   -7.4937    0.0000 C   0  0  0  0  0  0  0  0  0  0  0  0
    8.2666   -7.9062    0.0000 C   0  0  0  0  0  0  0  0  0  0  0  0
    8.9810   -7.4937    0.0000 C   0  0  2  0  0  0  0  0  0  0  0  0
    9.6955   -7.9062    0.0000 C   0  0  0  0  0  0  0  0  0  0  0  0
    6.5356   -6.7793    0.0000 C   0  0  0  0  0  0  0  0  0  0  0  0
    5.7106   -6.7793    0.0000 C   0  0  0  0  0  0  0  0  0  0  0  0
    8.9810   -6.6687    0.0000 O   0  0  0  0  0  0  0  0  0  0  0  0
    7.5521   -8.3187    0.0000 O   0  0  0  0  0  0  0  0  0  0  0  0
  1  2  1  0  0  0  0
  2  3  1  0  0  0  0
  3  4  2  0  0  0  0
  4  5  1  0  0  0  0
  5  6  1  0  0  0  0
  6  1  1  0  0  0  0
  2  7  2  0  0  0  0
  4  8  1  0  0  0  0
  5  9  1  0  0  0  0
  9 10  2  0  0  0  0
 10 11  1  0  0  0  0
 11 12  1  0  0  0  0
  6 13  1  0  0  0  0
  6 14  1  1  0  0  0
 11 15  1  1  0  0  0
  5 16  1  6  0  0  0
M  END
>  <cdx:fragmentId>
5

$$$$
