98179.cdx
  Mrv1902 05222410212D          

 50 55  0  0  0  0            999 V2000
    3.7603   -9.4325    0.0000 C   0  0  1  0  0  0  0  0  0  0  0  0
    3.7603   -8.6075    0.0000 C   0  0  1  0  0  0  0  0  0  0  0  0
    4.4747   -8.1950    0.0000 C   0  0  0  0  0  0  0  0  0  0  0  0
    4.4747   -9.8450    0.0000 C   0  0  2  0  0  0  0  0  0  0  0  0
    4.8872  -10.5595    0.0000 C   0  0  0  0  0  0  0  0  0  0  0  0
    4.0622  -10.5595    0.0000 C   0  0  0  0  0  0  0  0  0  0  0  0
    5.1892   -9.4325    0.0000 C   0  0  2  0  0  0  0  0  0  0  0  0
    5.1892  -10.2575    0.0000 H   0  0  0  0  0  0  0  0  0  0  0  0
    5.9037   -9.8450    0.0000 C   0  0  0  0  0  0  0  0  0  0  0  0
    6.6181   -9.4325    0.0000 C   0  0  0  0  0  0  0  0  0  0  0  0
    6.6181   -8.6075    0.0000 C   0  0  1  0  0  0  0  0  0  0  0  0
    6.6181   -7.7825    0.0000 C   0  0  0  0  0  0  0  0  0  0  0  0
    7.3326   -8.1950    0.0000 C   0  0  2  0  0  0  0  0  0  0  0  0
    7.3326   -9.0200    0.0000 C   0  0  0  0  0  0  0  0  0  0  0  0
    8.0471   -8.6075    0.0000 C   0  0  0  0  0  0  0  0  0  0  0  0
    8.7616   -8.1950    0.0000 C   0  0  0  0  0  0  0  0  0  0  0  0
    8.7616   -7.3700    0.0000 C   0  0  1  0  0  0  0  0  0  0  0  0
    9.4760   -7.7825    0.0000 C   0  0  0  0  0  0  0  0  0  0  0  0
    9.4760   -6.9575    0.0000 C   0  0  0  0  0  0  0  0  0  0  0  0
    9.4760   -6.1325    0.0000 C   0  0  0  0  0  0  0  0  0  0  0  0
    8.7616   -5.7200    0.0000 C   0  0  1  0  0  0  0  0  0  0  0  0
    8.7616   -4.8950    0.0000 C   0  0  0  0  0  0  0  0  0  0  0  0
    8.0471   -6.1325    0.0000 C   0  0  2  0  0  0  0  0  0  0  0  0
    7.2502   -5.9190    0.0000 C   0  0  0  0  0  0  0  0  0  0  0  0
    8.0471   -6.9575    0.0000 C   0  0  1  0  0  0  0  0  0  0  0  0
    7.3326   -6.5450    0.0000 H   0  0  0  0  0  0  0  0  0  0  0  0
    7.3326   -7.3700    0.0000 C   0  0  0  0  0  0  0  0  0  0  0  0
    6.6181   -6.9575    0.0000 C   0  0  0  0  0  0  0  0  0  0  0  0
    5.9037   -7.3700    0.0000 C   0  0  0  0  0  0  0  0  0  0  0  0
    5.9037   -8.1950    0.0000 C   0  0  2  0  0  0  0  0  0  0  0  0
    5.1892   -8.6075    0.0000 C   0  0  1  0  0  0  0  0  0  0  0  0
    5.1892   -7.7825    0.0000 C   0  0  0  0  0  0  0  0  0  0  0  0
    9.4760   -8.6075    0.0000 O   0  0  0  0  0  0  0  0  0  0  0  0
   10.1905   -7.3700    0.0000 O   0  0  0  0  0  0  0  0  0  0  0  0
    3.0458   -9.8450    0.0000 O   0  0  0  0  0  0  0  0  0  0  0  0
    5.9037   -9.0200    0.0000 H   0  0  0  0  0  0  0  0  0  0  0  0
    7.8336   -5.3356    0.0000 O   0  0  0  0  0  0  0  0  0  0  0  0
    3.0458   -8.1950    0.0000 O   0  0  0  0  0  0  0  0  0  0  0  0
    4.4747  -11.2739    0.0000 O   0  0  0  0  0  0  0  0  0  0  0  0
   10.9012  -10.2508    0.0000 C   0  0  2  0  0  0  0  0  0  0  0  0
   11.6164   -9.8395    0.0000 C   0  0  2  0  0  0  0  0  0  0  0  0
   11.6178   -9.0145    0.0000 C   0  0  1  0  0  0  0  0  0  0  0  0
   10.9040   -8.6008    0.0000 C   0  0  2  0  0  0  0  0  0  0  0  0
   10.1888   -9.0120    0.0000 C   0  0  1  0  0  0  0  0  0  0  0  0
   10.1874   -9.8370    0.0000 O   0  0  0  0  0  0  0  0  0  0  0  0
   10.8998  -11.0758    0.0000 C   0  0  0  0  0  0  0  0  0  0  0  0
   12.3329   -8.6032    0.0000 O   0  0  0  0  0  0  0  0  0  0  0  0
   12.3301  -10.2532    0.0000 O   0  0  0  0  0  0  0  0  0  0  0  0
   10.9054   -7.7758    0.0000 O   0  0  0  0  0  0  0  0  0  0  0  0
   11.6136  -11.4895    0.0000 O   0  0  0  0  0  0  0  0  0  0  0  0
  1  2  1  0  0  0  0
  2  3  1  0  0  0  0
  1  4  1  0  0  0  0
  4  5  1  0  0  0  0
  4  6  1  1  0  0  0
  4  7  1  0  0  0  0
  7  8  1  6  0  0  0
  7  9  1  0  0  0  0
  9 10  1  0  0  0  0
 10 11  1  0  0  0  0
 11 12  1  1  0  0  0
 11 13  1  0  0  0  0
 13 14  1  6  0  0  0
 13 15  1  0  0  0  0
 15 16  1  0  0  0  0
 16 17  1  0  0  0  0
 17 18  1  1  0  0  0
 17 19  1  0  0  0  0
 19 20  1  0  0  0  0
 20 21  1  0  0  0  0
 21 22  1  6  0  0  0
 21 23  1  0  0  0  0
 23 24  1  1  0  0  0
 23 25  1  0  0  0  0
 25 26  1  1  0  0  0
 17 25  1  0  0  0  0
 25 27  1  0  0  0  0
 13 27  1  0  0  0  0
 27 28  2  0  0  0  0
 28 29  1  0  0  0  0
 29 30  1  0  0  0  0
 11 30  1  0  0  0  0
 30 31  1  0  0  0  0
  3 31  1  0  0  0  0
  7 31  1  0  0  0  0
 31 32  1  1  0  0  0
 18 33  1  0  0  0  0
 18 34  2  0  0  0  0
  1 35  1  1  0  0  0
 30 36  1  6  0  0  0
 23 37  1  0  0  0  0
  2 38  1  6  0  0  0
  6 39  2  0  0  0  0
 40 41  1  0  0  0  0
 41 42  1  0  0  0  0
 42 43  1  0  0  0  0
 43 44  1  0  0  0  0
 44 45  1  0  0  0  0
 45 40  1  0  0  0  0
 40 46  1  1  0  0  0
 42 47  1  1  0  0  0
 41 48  1  6  0  0  0
 43 49  1  6  0  0  0
 46 50  1  0  0  0  0
 44 33  1  1  0  0  0
M  END
>  <cdx:fragmentId>
5

$$$$
