98176.cdx
  Mrv1902 05222410262D          

 19 20  0  0  0  0            999 V2000
    4.4324   -7.3425    0.0000 C   0  0  0  0  0  0  0  0  0  0  0  0
    4.4324   -8.1675    0.0000 C   0  0  0  0  0  0  0  0  0  0  0  0
    5.1469   -8.5800    0.0000 C   0  0  0  0  0  0  0  0  0  0  0  0
    5.8614   -8.1675    0.0000 C   0  0  0  0  0  0  0  0  0  0  0  0
    5.8614   -7.3425    0.0000 C   0  0  0  0  0  0  0  0  0  0  0  0
    5.1469   -6.9300    0.0000 C   0  0  0  0  0  0  0  0  0  0  0  0
    6.5758   -8.5800    0.0000 N   0  0  0  0  0  0  0  0  0  0  0  0
    7.2903   -8.1675    0.0000 C   0  0  0  0  0  0  0  0  0  0  0  0
    7.2903   -7.3425    0.0000 C   0  0  0  0  0  0  0  0  0  0  0  0
    6.5758   -6.9300    0.0000 C   0  0  0  0  0  0  0  0  0  0  0  0
    6.5758   -6.1050    0.0000 O   0  0  0  0  0  0  0  0  0  0  0  0
    5.8614   -5.6925    0.0000 C   0  0  0  0  0  0  0  0  0  0  0  0
    8.0048   -8.5800    0.0000 O   0  0  0  0  0  0  0  0  0  0  0  0
    8.0048   -6.9300    0.0000 C   0  0  0  0  0  0  0  0  0  0  0  0
    8.7193   -7.3425    0.0000 C   0  0  0  0  0  0  0  0  0  0  0  0
    9.4337   -6.9300    0.0000 C   0  0  0  0  0  0  0  0  0  0  0  0
   10.1482   -7.3425    0.0000 C   0  0  0  0  0  0  0  0  0  0  0  0
    9.4337   -6.1050    0.0000 C   0  0  0  0  0  0  0  0  0  0  0  0
    6.5758   -9.4050    0.0000 C   0  0  0  0  0  0  0  0  0  0  0  0
  1  2  2  0  0  0  0
  2  3  1  0  0  0  0
  3  4  2  0  0  0  0
  4  5  1  0  0  0  0
  5  6  2  0  0  0  0
  6  1  1  0  0  0  0
  4  7  1  0  0  0  0
  7  8  1  0  0  0  0
  8  9  1  0  0  0  0
  9 10  2  0  0  0  0
 10  5  1  0  0  0  0
 10 11  1  0  0  0  0
 11 12  1  0  0  0  0
  8 13  2  0  0  0  0
  9 14  1  0  0  0  0
 14 15  1  0  0  0  0
 15 16  2  0  0  0  0
 16 17  1  0  0  0  0
 16 18  1  0  0  0  0
  7 19  1  0  0  0  0
M  END
>  <cdx:fragmentId>
5

$$$$
