98175.cdx
  Mrv1902 05222410252D          

 46 51  0  0  0  0            999 V2000
    6.5793   -6.0500    0.0000 C   0  0  0  0  0  0  0  0  0  0  0  0
    6.5793   -6.7925    0.0000 C   0  0  0  0  0  0  0  0  0  0  0  0
    7.2223   -7.1638    0.0000 C   0  0  0  0  0  0  0  0  0  0  0  0
    7.8653   -6.7925    0.0000 C   0  0  0  0  0  0  0  0  0  0  0  0
    7.8653   -6.0500    0.0000 C   0  0  0  0  0  0  0  0  0  0  0  0
    7.2223   -5.6788    0.0000 C   0  0  0  0  0  0  0  0  0  0  0  0
    8.5084   -7.1638    0.0000 C   0  0  0  0  0  0  0  0  0  0  0  0
    9.1514   -6.7925    0.0000 C   0  0  0  0  0  0  0  0  0  0  0  0
    9.1514   -6.0500    0.0000 C   0  0  0  0  0  0  0  0  0  0  0  0
    8.5084   -5.6788    0.0000 O   0  0  0  0  0  0  0  0  0  0  0  0
   10.4374   -6.0500    0.0000 C   0  0  0  0  0  0  0  0  0  0  0  0
    9.7944   -5.6788    0.0000 C   0  0  0  0  0  0  0  0  0  0  0  0
   11.7235   -6.0500    0.0000 C   0  0  0  0  0  0  0  0  0  0  0  0
   11.0805   -5.6788    0.0000 C   0  0  0  0  0  0  0  0  0  0  0  0
   12.3665   -5.6788    0.0000 C   0  0  0  0  0  0  0  0  0  0  0  0
   12.3665   -4.9363    0.0000 C   0  0  0  0  0  0  0  0  0  0  0  0
   11.7235   -4.5650    0.0000 C   0  0  0  0  0  0  0  0  0  0  0  0
   11.0805   -4.9363    0.0000 C   0  0  0  0  0  0  0  0  0  0  0  0
    7.2099   -8.7849    0.0000 C   0  0  0  0  0  0  0  0  0  0  0  0
    6.5670   -9.1563    0.0000 C   0  0  0  0  0  0  0  0  0  0  0  0
    6.5670   -9.8988    0.0000 C   0  0  0  0  0  0  0  0  0  0  0  0
    7.2099  -10.2699    0.0000 C   0  0  0  0  0  0  0  0  0  0  0  0
    7.8529   -9.8988    0.0000 C   0  0  0  0  0  0  0  0  0  0  0  0
    7.8529   -9.1563    0.0000 C   0  0  0  0  0  0  0  0  0  0  0  0
    5.9240   -8.7850    0.0000 C   0  0  0  0  0  0  0  0  0  0  0  0
    5.2809   -9.1563    0.0000 C   0  0  0  0  0  0  0  0  0  0  0  0
    5.2809   -9.8988    0.0000 C   0  0  0  0  0  0  0  0  0  0  0  0
    5.9240  -10.2700    0.0000 O   0  0  0  0  0  0  0  0  0  0  0  0
    3.9949   -9.8988    0.0000 C   0  0  0  0  0  0  0  0  0  0  0  0
    4.6379  -10.2700    0.0000 C   0  0  0  0  0  0  0  0  0  0  0  0
    2.7088   -9.8988    0.0000 C   0  0  0  0  0  0  0  0  0  0  0  0
    3.3519  -10.2700    0.0000 C   0  0  0  0  0  0  0  0  0  0  0  0
    2.0658  -10.2700    0.0000 C   0  0  0  0  0  0  0  0  0  0  0  0
    2.0658  -11.0125    0.0000 C   0  0  0  0  0  0  0  0  0  0  0  0
    2.7088  -11.3838    0.0000 C   0  0  0  0  0  0  0  0  0  0  0  0
    3.3519  -11.0125    0.0000 C   0  0  0  0  0  0  0  0  0  0  0  0
    8.5084   -7.9063    0.0000 O   0  0  0  0  0  0  0  0  0  0  0  0
   13.0095   -4.5650    0.0000 O   0  0  0  0  0  0  0  0  0  0  0  0
    5.9363   -7.1638    0.0000 O   0  0  0  0  0  0  0  0  0  0  0  0
    5.9363   -5.6788    0.0000 O   0  0  0  0  0  0  0  0  0  0  0  0
    5.9240   -8.0425    0.0000 O   0  0  0  0  0  0  0  0  0  0  0  0
    7.2099  -11.0124    0.0000 O   0  0  0  0  0  0  0  0  0  0  0  0
    1.4228  -11.3838    0.0000 O   0  0  0  0  0  0  0  0  0  0  0  0
    0.7798  -11.0125    0.0000 C   0  0  0  0  0  0  0  0  0  0  0  0
    5.2932   -6.0500    0.0000 C   0  0  0  0  0  0  0  0  0  0  0  0
   13.6526   -4.9363    0.0000 C   0  0  0  0  0  0  0  0  0  0  0  0
  1  2  2  0  0  0  0
  2  3  1  0  0  0  0
  3  4  2  0  0  0  0
  4  5  1  0  0  0  0
  5  6  2  0  0  0  0
  6  1  1  0  0  0  0
  4  7  1  0  0  0  0
  7  8  1  0  0  0  0
  8  9  2  0  0  0  0
  9 10  1  0  0  0  0
 10  5  1  0  0  0  0
 11 12  1  0  0  0  0
 12  9  1  0  0  0  0
 13 14  2  0  0  0  0
 14 11  1  0  0  0  0
 13 15  1  0  0  0  0
 15 16  2  0  0  0  0
 16 17  1  0  0  0  0
 17 18  2  0  0  0  0
 18 14  1  0  0  0  0
  3 19  1  0  0  0  0
 19 20  2  0  0  0  0
 20 21  1  0  0  0  0
 21 22  2  0  0  0  0
 22 23  1  0  0  0  0
 23 24  2  0  0  0  0
 24 19  1  0  0  0  0
 20 25  1  0  0  0  0
 25 26  1  0  0  0  0
 26 27  2  0  0  0  0
 27 28  1  0  0  0  0
 28 21  1  0  0  0  0
 29 30  1  0  0  0  0
 30 27  1  0  0  0  0
 31 32  2  0  0  0  0
 32 29  1  0  0  0  0
 31 33  1  0  0  0  0
 33 34  2  0  0  0  0
 34 35  1  0  0  0  0
 35 36  2  0  0  0  0
 36 32  1  0  0  0  0
  7 37  2  0  0  0  0
 16 38  1  0  0  0  0
  2 39  1  0  0  0  0
  1 40  1  0  0  0  0
 25 41  2  0  0  0  0
 22 42  1  0  0  0  0
 34 43  1  0  0  0  0
 43 44  1  0  0  0  0
 40 45  1  0  0  0  0
 38 46  1  0  0  0  0
M  END
>  <cdx:fragmentId>
5

$$$$
