98180.cdx
  Mrv1902 05222410232D          

 53 59  0  0  0  0            999 V2000
    6.7974   -9.2950    0.0000 C   0  0  0  0  0  0  0  0  0  0  0  0
    6.7974  -10.1200    0.0000 C   0  0  1  0  0  0  0  0  0  0  0  0
    7.5119  -10.5325    0.0000 C   0  0  0  0  0  0  0  0  0  0  0  0
    8.2264  -10.1200    0.0000 C   0  0  2  0  0  0  0  0  0  0  0  0
    8.2264   -9.2950    0.0000 C   0  0  2  0  0  0  0  0  0  0  0  0
    7.5119   -8.8825    0.0000 C   0  0  0  0  0  0  0  0  0  0  0  0
    8.9408  -10.5325    0.0000 C   0  0  0  0  0  0  0  0  0  0  0  0
    9.6553  -10.1200    0.0000 C   0  0  0  0  0  0  0  0  0  0  0  0
    9.6553   -9.2950    0.0000 C   0  0  2  0  0  0  0  0  0  0  0  0
    8.9408   -8.8825    0.0000 C   0  0  2  0  0  0  0  0  0  0  0  0
   10.3698   -8.8825    0.0000 C   0  0  2  0  0  0  0  0  0  0  0  0
   10.3698   -8.0575    0.0000 C   0  0  2  0  0  0  0  0  0  0  0  0
    9.6553   -7.6450    0.0000 C   0  0  0  0  0  0  0  0  0  0  0  0
    8.9408   -8.0575    0.0000 C   0  0  1  0  0  0  0  0  0  0  0  0
    5.3685   -9.2950    0.0000 O   0  0  0  0  0  0  0  0  0  0  0  0
    5.3685  -10.1200    0.0000 C   0  0  1  0  0  0  0  0  0  0  0  0
    6.0830  -10.5325    0.0000 O   0  0  0  0  0  0  0  0  0  0  0  0
    4.6540   -8.8825    0.0000 C   0  0  1  0  0  0  0  0  0  0  0  0
    3.9395   -9.2950    0.0000 C   0  0  1  0  0  0  0  0  0  0  0  0
    3.9395  -10.1200    0.0000 C   0  0  2  0  0  0  0  0  0  0  0  0
    4.6540  -10.5325    0.0000 C   0  0  0  0  0  0  0  0  0  0  0  0
    4.6540   -8.0575    0.0000 C   0  0  0  0  0  0  0  0  0  0  0  0
    3.9395   -7.6450    0.0000 O   0  0  0  0  0  0  0  0  0  0  0  0
    3.2251   -8.0575    0.0000 C   0  0  0  0  0  0  0  0  0  0  0  0
    3.2251   -8.8825    0.0000 O   0  0  0  0  0  0  0  0  0  0  0  0
    3.9395   -6.8200    0.0000 C   0  0  2  0  0  0  0  0  0  0  0  0
    3.2251   -6.4075    0.0000 C   0  0  1  0  0  0  0  0  0  0  0  0
    2.5106   -6.8200    0.0000 C   0  0  2  0  0  0  0  0  0  0  0  0
    2.5106   -7.6450    0.0000 C   0  0  2  0  0  0  0  0  0  0  0  0
    5.3685   -6.8200    0.0000 O   0  0  0  0  0  0  0  0  0  0  0  0
    4.6540   -6.4075    0.0000 C   0  0  0  0  0  0  0  0  0  0  0  0
   11.1544   -9.1374    0.0000 C   0  0  0  0  0  0  0  0  0  0  0  0
   11.6393   -8.4700    0.0000 C   0  0  0  0  0  0  0  0  0  0  0  0
   11.1544   -7.8026    0.0000 C   0  0  2  0  0  0  0  0  0  0  0  0
   11.4093   -7.0179    0.0000 C   0  0  0  0  0  0  0  0  0  0  0  0
   12.1940   -6.7630    0.0000 C   0  0  0  0  0  0  0  0  0  0  0  0
   12.1940   -5.9380    0.0000 C   0  0  0  0  0  0  0  0  0  0  0  0
   11.4093   -5.6831    0.0000 O   0  0  0  0  0  0  0  0  0  0  0  0
   10.9244   -6.3505    0.0000 C   0  0  0  0  0  0  0  0  0  0  0  0
   12.8614   -5.4531    0.0000 O   0  0  0  0  0  0  0  0  0  0  0  0
    3.2251   -5.5825    0.0000 O   0  0  0  0  0  0  0  0  0  0  0  0
    1.7961   -8.0575    0.0000 O   0  0  0  0  0  0  0  0  0  0  0  0
    8.2264   -8.4700    0.0000 C   0  0  0  0  0  0  0  0  0  0  0  0
    8.2264  -10.9450    0.0000 H   0  0  0  0  0  0  0  0  0  0  0  0
    9.6553   -8.4700    0.0000 H   0  0  0  0  0  0  0  0  0  0  0  0
   10.4560   -9.7030    0.0000 O   0  0  0  0  0  0  0  0  0  0  0  0
   10.4560   -7.2370    0.0000 C   0  0  0  0  0  0  0  0  0  0  0  0
    1.7961   -6.4075    0.0000 O   0  0  0  0  0  0  0  0  0  0  0  0
    3.2251  -10.5325    0.0000 O   0  0  0  0  0  0  0  0  0  0  0  0
    5.3685  -10.9450    0.0000 H   0  0  0  0  0  0  0  0  0  0  0  0
    8.9408   -9.7075    0.0000 H   0  0  0  0  0  0  0  0  0  0  0  0
    8.2264   -7.6450    0.0000 O   0  0  0  0  0  0  0  0  0  0  0  0
    3.2251  -11.3575    0.0000 C   0  0  0  0  0  0  0  0  0  0  0  0
  1  2  1  0  0  0  0
  2  3  1  0  0  0  0
  3  4  1  0  0  0  0
  4  5  1  0  0  0  0
  5  6  1  0  0  0  0
  6  1  1  0  0  0  0
  4  7  1  0  0  0  0
  7  8  1  0  0  0  0
  8  9  1  0  0  0  0
  9 10  1  0  0  0  0
 10  5  1  0  0  0  0
  9 11  1  0  0  0  0
 11 12  1  0  0  0  0
 12 13  1  0  0  0  0
 13 14  1  0  0  0  0
 14 10  1  0  0  0  0
 15 16  1  0  0  0  0
 16 17  1  0  0  0  0
  2 17  1  1  0  0  0
 15 18  1  0  0  0  0
 18 19  1  0  0  0  0
 19 20  1  0  0  0  0
 20 21  1  0  0  0  0
 21 16  1  0  0  0  0
 18 22  1  1  0  0  0
 23 24  1  0  0  0  0
 24 25  1  0  0  0  0
 19 25  1  1  0  0  0
 23 26  1  0  0  0  0
 26 27  1  0  0  0  0
 27 28  1  0  0  0  0
 28 29  1  0  0  0  0
 29 24  1  0  0  0  0
 30 31  1  0  0  0  0
 26 31  1  6  0  0  0
 11 32  1  0  0  0  0
 32 33  1  0  0  0  0
 33 34  1  0  0  0  0
 34 12  1  0  0  0  0
 34 35  1  1  0  0  0
 35 36  2  0  0  0  0
 36 37  1  0  0  0  0
 37 38  1  0  0  0  0
 38 39  1  0  0  0  0
 39 35  1  0  0  0  0
 37 40  2  0  0  0  0
 27 41  1  1  0  0  0
 29 42  1  1  0  0  0
  5 43  1  1  0  0  0
  4 44  1  1  0  0  0
  9 45  1  1  0  0  0
 11 46  1  1  0  0  0
 12 47  1  1  0  0  0
 28 48  1  6  0  0  0
 20 49  1  6  0  0  0
 16 50  1  6  0  0  0
 10 51  1  6  0  0  0
 14 52  1  6  0  0  0
 49 53  1  0  0  0  0
M  END
>  <cdx:fragmentId>
5

$$$$
