98185.cdx
  Mrv1902 05222410212D          

  8  7  0  0  0  0            999 V2000
    8.7739   -9.1305    0.0000 C   0  0  0  0  0  0  0  0  0  0  0  0
    8.0595   -8.7180    0.0000 C   0  0  0  0  0  0  0  0  0  0  0  0
    7.3450   -9.1305    0.0000 C   0  0  0  0  0  0  0  0  0  0  0  0
    6.6305   -8.7180    0.0000 C   0  0  0  0  0  0  0  0  0  0  0  0
    6.6305   -7.8930    0.0000 C   0  0  0  0  0  0  0  0  0  0  0  0
    8.0595   -7.8930    0.0000 O   0  0  0  0  0  0  0  0  0  0  0  0
    5.9160   -9.1305    0.0000 C   0  0  0  0  0  0  0  0  0  0  0  0
    5.9160   -8.3055    0.0000 O   0  0  0  0  0  0  0  0  0  0  0  0
  1  2  1  0  0  0  0
  2  3  1  0  0  0  0
  3  4  1  0  0  0  0
  4  5  1  0  0  0  0
  2  6  2  0  0  0  0
  4  7  1  0  0  0  0
  4  8  1  0  0  0  0
M  END
>  <cdx:fragmentId>
5

$$$$
