98184.cdx
  Mrv1902 05222410202D          

 15 15  0  0  0  0            999 V2000
    7.5529   -9.0829    0.0000 C   0  0  0  0  0  0  0  0  0  0  0  0
    8.2674   -9.4954    0.0000 C   0  0  0  0  0  0  0  0  0  0  0  0
    8.9818   -9.9079    0.0000 C   0  0  0  0  0  0  0  0  0  0  0  0
    8.2674  -10.3204    0.0000 C   0  0  0  0  0  0  0  0  0  0  0  0
    8.9818   -9.0829    0.0000 C   0  0  0  0  0  0  0  0  0  0  0  0
    7.5529   -8.2579    0.0000 C   0  0  0  0  0  0  0  0  0  0  0  0
    6.8384   -7.8454    0.0000 C   0  0  0  0  0  0  0  0  0  0  0  0
    6.8384   -7.0204    0.0000 C   0  0  0  0  0  0  0  0  0  0  0  0
    7.5529   -6.6079    0.0000 C   0  0  0  0  0  0  0  0  0  0  0  0
    8.2674   -7.0204    0.0000 C   0  0  0  0  0  0  0  0  0  0  0  0
    8.2674   -7.8454    0.0000 C   0  0  0  0  0  0  0  0  0  0  0  0
    6.1239   -9.0829    0.0000 C   0  0  0  0  0  0  0  0  0  0  0  0
    5.4095   -9.4954    0.0000 C   0  0  0  0  0  0  0  0  0  0  0  0
    6.1239   -8.2579    0.0000 O   0  0  0  0  0  0  0  0  0  0  0  0
    6.8384   -9.4954    0.0000 O   0  0  0  0  0  0  0  0  0  0  0  0
  1  2  1  0  0  0  0
  2  3  1  0  0  0  0
  2  4  1  0  0  0  0
  2  5  1  0  0  0  0
  6  7  1  0  0  0  0
  7  8  1  0  0  0  0
  8  9  1  0  0  0  0
  9 10  1  0  0  0  0
 10 11  1  0  0  0  0
  6 11  1  0  0  0  0
  1  6  1  0  0  0  0
 12 13  1  0  0  0  0
 12 14  2  0  0  0  0
 12 15  1  0  0  0  0
  1 15  1  0  0  0  0
M  END
>  <cdx:fragmentId>
15

$$$$
