98189.cdx
  Mrv1902 05222410262D          

 10 10  0  0  0  0            999 V2000
    7.3845   -7.3837    0.0000 O   0  0  0  0  0  0  0  0  0  0  0  0
    8.0493   -7.8722    0.0000 C   0  0  0  0  0  0  0  0  0  0  0  0
    7.7901   -8.6555    0.0000 C   0  0  2  0  0  0  0  0  0  0  0  0
    6.9651   -8.6510    0.0000 C   0  0  1  0  0  0  0  0  0  0  0  0
    6.7144   -7.8650    0.0000 C   0  0  1  0  0  0  0  0  0  0  0  0
    8.8353   -7.6216    0.0000 O   0  0  0  0  0  0  0  0  0  0  0  0
    8.2713   -9.3255    0.0000 O   0  0  0  0  0  0  0  0  0  0  0  0
    6.4765   -9.3157    0.0000 O   0  0  0  0  0  0  0  0  0  0  0  0
    5.9312   -7.6057    0.0000 C   0  0  0  0  0  0  0  0  0  0  0  0
    5.3151   -8.1544    0.0000 O   0  0  0  0  0  0  0  0  0  0  0  0
  1  2  1  0  0  0  0
  2  3  1  0  0  0  0
  3  4  1  0  0  0  0
  4  5  1  0  0  0  0
  1  5  1  0  0  0  0
  2  6  1  0  0  0  0
  3  7  1  1  0  0  0
  4  8  1  6  0  0  0
  9 10  1  0  0  0  0
  5  9  1  1  0  0  0
M  END
>  <cdx:fragmentId>
5

$$$$
