98186.cdx
  Mrv1902 05222410212D          

 19 18  0  0  0  0            999 V2000
    3.6233   -8.2585    0.0000 C   0  0  0  0  0  0  0  0  0  0  0  0
    2.9088   -7.8460    0.0000 C   0  0  0  0  0  0  0  0  0  0  0  0
    2.1944   -8.2585    0.0000 C   0  0  0  0  0  0  0  0  0  0  0  0
    2.1944   -9.0835    0.0000 C   0  0  0  0  0  0  0  0  0  0  0  0
    3.6233   -9.0835    0.0000 O   0  0  0  0  0  0  0  0  0  0  0  0
    4.3378   -7.8460    0.0000 O   0  0  0  0  0  0  0  0  0  0  0  0
    1.4799   -7.8460    0.0000 C   0  0  0  0  0  0  0  0  0  0  0  0
    5.0522   -8.2585    0.0000 C   0  0  0  0  0  0  0  0  0  0  0  0
    5.7667   -7.8460    0.0000 C   0  0  0  0  0  0  0  0  0  0  0  0
    6.4812   -8.2585    0.0000 C   0  0  0  0  0  0  0  0  0  0  0  0
    7.1956   -7.8460    0.0000 C   0  0  0  0  0  0  0  0  0  0  0  0
    7.9101   -8.2585    0.0000 C   0  0  0  0  0  0  0  0  0  0  0  0
    8.6246   -7.8460    0.0000 C   0  0  0  0  0  0  0  0  0  0  0  0
    9.3391   -8.2585    0.0000 C   0  0  0  0  0  0  0  0  0  0  0  0
   10.0535   -7.8460    0.0000 C   0  0  0  0  0  0  0  0  0  0  0  0
   10.7680   -8.2585    0.0000 C   0  0  0  0  0  0  0  0  0  0  0  0
   11.4825   -7.8460    0.0000 C   0  0  0  0  0  0  0  0  0  0  0  0
   12.1969   -8.2585    0.0000 C   0  0  0  0  0  0  0  0  0  0  0  0
   12.9114   -7.8460    0.0000 C   0  0  0  0  0  0  0  0  0  0  0  0
  1  2  1  0  0  0  0
  2  3  2  0  0  0  0
  3  4  1  0  0  0  0
  1  5  2  0  0  0  0
  1  6  1  0  0  0  0
  3  7  1  0  0  0  0
  8  9  1  0  0  0  0
  9 10  1  0  0  0  0
 10 11  1  0  0  0  0
 11 12  1  0  0  0  0
 12 13  1  0  0  0  0
 13 14  1  0  0  0  0
 14 15  1  0  0  0  0
 15 16  1  0  0  0  0
 16 17  1  0  0  0  0
 17 18  1  0  0  0  0
 18 19  1  0  0  0  0
  6  8  1  0  0  0  0
M  END
>  <cdx:fragmentId>
19

$$$$
