98187.cdx
  Mrv1902 05222410212D          

 11 11  0  0  0  0            999 V2000
    8.6246   -8.0843    0.0000 C   0  0  0  0  0  0  0  0  0  0  0  0
    7.9101   -7.6718    0.0000 C   0  0  0  0  0  0  0  0  0  0  0  0
    7.1956   -8.0843    0.0000 C   0  0  0  0  0  0  0  0  0  0  0  0
    6.4812   -7.6718    0.0000 C   0  0  0  0  0  0  0  0  0  0  0  0
    5.7667   -8.0843    0.0000 C   0  0  0  0  0  0  0  0  0  0  0  0
    7.9101   -6.8468    0.0000 O   0  0  0  0  0  0  0  0  0  0  0  0
    7.8631   -9.3943    0.0000 O   0  0  0  0  0  0  0  0  0  0  0  0
    7.1956   -8.9093    0.0000 C   0  0  0  0  0  0  0  0  0  0  0  0
    6.5282   -9.3943    0.0000 C   0  0  0  0  0  0  0  0  0  0  0  0
    6.7831  -10.1789    0.0000 C   0  0  0  0  0  0  0  0  0  0  0  0
    7.6081  -10.1789    0.0000 C   0  0  0  0  0  0  0  0  0  0  0  0
  1  2  1  0  0  0  0
  2  3  1  0  0  0  0
  3  4  2  0  0  0  0
  4  5  1  0  0  0  0
  2  6  2  0  0  0  0
  7  8  1  0  0  0  0
  8  9  2  0  0  0  0
  9 10  1  0  0  0  0
 10 11  2  0  0  0  0
  7 11  1  0  0  0  0
  3  8  1  0  0  0  0
M  END
>  <cdx:fragmentId>
5

$$$$
