98198.cdx
  Mrv1902 05222410242D          

 19 20  0  0  0  0            999 V2000
    6.6324   -7.1775    0.0000 C   0  0  2  0  0  0  0  0  0  0  0  0
    6.6324   -8.0025    0.0000 C   0  0  2  0  0  0  0  0  0  0  0  0
    7.3469   -8.4150    0.0000 O   0  0  0  0  0  0  0  0  0  0  0  0
    8.0614   -8.0025    0.0000 C   0  0  0  0  0  0  0  0  0  0  0  0
    8.0614   -7.1775    0.0000 C   0  0  0  0  0  0  0  0  0  0  0  0
    7.3469   -6.7650    0.0000 C   0  0  0  0  0  0  0  0  0  0  0  0
    5.8478   -6.9226    0.0000 C   0  0  0  0  0  0  0  0  0  0  0  0
    5.3629   -7.5900    0.0000 C   0  0  0  0  0  0  0  0  0  0  0  0
    5.8478   -8.2574    0.0000 C   0  0  2  0  0  0  0  0  0  0  0  0
    7.3469   -5.9400    0.0000 C   0  0  0  0  0  0  0  0  0  0  0  0
    8.7758   -8.4150    0.0000 O   0  0  0  0  0  0  0  0  0  0  0  0
    5.5929   -9.0421    0.0000 C   0  0  0  0  0  0  0  0  0  0  0  0
    6.5462   -8.8230    0.0000 C   0  0  0  0  0  0  0  0  0  0  0  0
    7.2136   -9.3079    0.0000 C   0  0  0  0  0  0  0  0  0  0  0  0
    7.1274  -10.1284    0.0000 C   0  0  0  0  0  0  0  0  0  0  0  0
    7.9673   -8.9723    0.0000 O   0  0  0  0  0  0  0  0  0  0  0  0
    7.7948  -10.6133    0.0000 C   0  0  0  0  0  0  0  0  0  0  0  0
    6.3737  -10.4639    0.0000 C   0  0  0  0  0  0  0  0  0  0  0  0
    6.5462   -6.3570    0.0000 H   0  0  0  0  0  0  0  0  0  0  0  0
  1  2  1  0  0  0  0
  2  3  1  0  0  0  0
  3  4  1  0  0  0  0
  4  5  1  0  0  0  0
  5  6  2  0  0  0  0
  6  1  1  0  0  0  0
  1  7  1  0  0  0  0
  7  8  1  0  0  0  0
  8  9  1  0  0  0  0
  9  2  1  0  0  0  0
  6 10  1  0  0  0  0
  4 11  2  0  0  0  0
  9 12  1  1  0  0  0
  2 13  1  1  0  0  0
 13 14  1  0  0  0  0
 14 15  1  0  0  0  0
 14 16  2  0  0  0  0
 15 17  2  0  0  0  0
 15 18  1  0  0  0  0
  1 19  1  6  0  0  0
M  END
>  <cdx:fragmentId>
5

$$$$
