98194.cdx
  Mrv1902 05222410232D          

 63 70  0  0  0  0            999 V2000
   11.5946   -4.4931    0.0000 C   0  0  0  0  0  0  0  0  0  0  0  0
   12.3091   -4.0806    0.0000 C   0  0  0  0  0  0  0  0  0  0  0  0
   13.0235   -4.4931    0.0000 C   0  0  0  0  0  0  0  0  0  0  0  0
   13.0235   -5.3181    0.0000 C   0  0  0  0  0  0  0  0  0  0  0  0
   12.3091   -5.7306    0.0000 C   0  0  2  0  0  0  0  0  0  0  0  0
   12.3091   -6.5556    0.0000 C   0  0  0  0  0  0  0  0  0  0  0  0
   11.5946   -6.9681    0.0000 C   0  0  0  0  0  0  0  0  0  0  0  0
   10.8801   -6.5556    0.0000 C   0  0  1  0  0  0  0  0  0  0  0  0
   10.1656   -6.9681    0.0000 C   0  0  2  0  0  0  0  0  0  0  0  0
   10.1656   -7.7931    0.0000 C   0  0  0  0  0  0  0  0  0  0  0  0
    9.4512   -8.2056    0.0000 C   0  0  0  0  0  0  0  0  0  0  0  0
    8.7367   -7.7931    0.0000 C   0  0  1  0  0  0  0  0  0  0  0  0
    8.0222   -8.2056    0.0000 C   0  0  0  0  0  0  0  0  0  0  0  0
    7.3078   -7.7931    0.0000 C   0  0  2  0  0  0  0  0  0  0  0  0
    7.3078   -6.9681    0.0000 C   0  0  0  0  0  0  0  0  0  0  0  0
    8.0222   -6.5556    0.0000 C   0  0  0  0  0  0  0  0  0  0  0  0
    8.7367   -6.9681    0.0000 C   0  0  2  0  0  0  0  0  0  0  0  0
    9.4512   -6.5556    0.0000 C   0  0  1  0  0  0  0  0  0  0  0  0
    9.4512   -5.7306    0.0000 C   0  0  0  0  0  0  0  0  0  0  0  0
   10.1656   -5.3181    0.0000 C   0  0  0  0  0  0  0  0  0  0  0  0
   10.8801   -5.7306    0.0000 C   0  0  0  0  0  0  0  0  0  0  0  0
   11.5946   -5.3181    0.0000 C   0  0  2  0  0  0  0  0  0  0  0  0
   13.0235   -6.1431    0.0000 C   0  0  0  0  0  0  0  0  0  0  0  0
   13.0235   -6.9681    0.0000 O   0  0  0  0  0  0  0  0  0  0  0  0
   13.7380   -5.7306    0.0000 O   0  0  0  0  0  0  0  0  0  0  0  0
   12.3091   -3.2556    0.0000 C   0  0  0  0  0  0  0  0  0  0  0  0
    8.7367   -6.1431    0.0000 C   0  0  0  0  0  0  0  0  0  0  0  0
    8.4347   -8.9200    0.0000 C   0  0  0  0  0  0  0  0  0  0  0  0
    7.6097   -8.9200    0.0000 C   0  0  0  0  0  0  0  0  0  0  0  0
    6.5933   -8.2056    0.0000 O   0  0  0  0  0  0  0  0  0  0  0  0
    8.7367   -8.6181    0.0000 H   0  0  0  0  0  0  0  0  0  0  0  0
   11.5946   -6.1431    0.0000 H   0  0  0  0  0  0  0  0  0  0  0  0
   10.5781   -7.6825    0.0000 C   0  0  0  0  0  0  0  0  0  0  0  0
   10.1656   -6.1431    0.0000 H   0  0  0  0  0  0  0  0  0  0  0  0
   11.2926   -7.2700    0.0000 C   0  0  0  0  0  0  0  0  0  0  0  0
    1.5882  -11.9075    0.0000 C   0  0  0  0  0  0  0  0  0  0  0  0
    1.5882  -12.7325    0.0000 C   0  0  1  0  0  0  0  0  0  0  0  0
    2.3026  -13.1450    0.0000 C   0  0  1  0  0  0  0  0  0  0  0  0
    3.0171  -12.7325    0.0000 C   0  0  2  0  0  0  0  0  0  0  0  0
    3.0171  -11.9075    0.0000 C   0  0  1  0  0  0  0  0  0  0  0  0
    2.3026  -11.4950    0.0000 O   0  0  0  0  0  0  0  0  0  0  0  0
    3.7316  -11.4950    0.0000 O   0  0  0  0  0  0  0  0  0  0  0  0
    0.8737  -13.1450    0.0000 O   0  0  0  0  0  0  0  0  0  0  0  0
    2.3026  -13.9700    0.0000 O   0  0  0  0  0  0  0  0  0  0  0  0
    3.7316  -13.1450    0.0000 O   0  0  0  0  0  0  0  0  0  0  0  0
    3.0182   -9.4325    0.0000 C   0  0  1  0  0  0  0  0  0  0  0  0
    3.0182  -10.2575    0.0000 C   0  0  1  0  0  0  0  0  0  0  0  0
    3.7326  -10.6700    0.0000 C   0  0  2  0  0  0  0  0  0  0  0  0
    4.4471  -10.2575    0.0000 C   0  0  2  0  0  0  0  0  0  0  0  0
    4.4471   -9.4325    0.0000 C   0  0  1  0  0  0  0  0  0  0  0  0
    3.7326   -9.0200    0.0000 O   0  0  0  0  0  0  0  0  0  0  0  0
    2.3037  -10.6700    0.0000 O   0  0  0  0  0  0  0  0  0  0  0  0
    5.1616   -9.0200    0.0000 O   0  0  0  0  0  0  0  0  0  0  0  0
    2.3037   -9.0200    0.0000 C   0  0  0  0  0  0  0  0  0  0  0  0
    5.1616  -10.6700    0.0000 O   0  0  0  0  0  0  0  0  0  0  0  0
    5.1734   -6.5508    0.0000 C   0  0  0  0  0  0  0  0  0  0  0  0
    4.4571   -6.9601    0.0000 C   0  0  1  0  0  0  0  0  0  0  0  0
    4.4534   -7.7851    0.0000 C   0  0  1  0  0  0  0  0  0  0  0  0
    5.1660   -8.2008    0.0000 C   0  0  2  0  0  0  0  0  0  0  0  0
    5.8823   -7.7915    0.0000 C   0  0  1  0  0  0  0  0  0  0  0  0
    5.8860   -6.9665    0.0000 O   0  0  0  0  0  0  0  0  0  0  0  0
    3.7444   -6.5444    0.0000 O   0  0  0  0  0  0  0  0  0  0  0  0
    3.7371   -8.1944    0.0000 O   0  0  0  0  0  0  0  0  0  0  0  0
  1  2  1  0  0  0  0
  2  3  1  0  0  0  0
  3  4  1  0  0  0  0
  4  5  1  0  0  0  0
  5  6  1  0  0  0  0
  6  7  1  0  0  0  0
  7  8  1  0  0  0  0
  8  9  1  0  0  0  0
  9 10  1  0  0  0  0
 10 11  1  0  0  0  0
 11 12  1  0  0  0  0
 12 13  1  0  0  0  0
 13 14  1  0  0  0  0
 14 15  1  0  0  0  0
 15 16  1  0  0  0  0
 16 17  1  0  0  0  0
 12 17  1  0  0  0  0
 17 18  1  0  0  0  0
  9 18  1  0  0  0  0
 18 19  1  0  0  0  0
 19 20  1  0  0  0  0
 20 21  2  0  0  0  0
  8 21  1  0  0  0  0
 21 22  1  0  0  0  0
  5 22  1  0  0  0  0
  1 22  1  0  0  0  0
 23 24  2  0  0  0  0
 23 25  1  0  0  0  0
  5 23  1  1  0  0  0
  2 26  2  0  0  0  0
 17 27  1  1  0  0  0
 13 28  1  0  0  0  0
 13 29  1  0  0  0  0
 14 30  1  1  0  0  0
 12 31  1  6  0  0  0
 22 32  1  1  0  0  0
  9 33  1  1  0  0  0
 18 34  1  6  0  0  0
  8 35  1  6  0  0  0
 36 37  1  0  0  0  0
 37 38  1  0  0  0  0
 38 39  1  0  0  0  0
 39 40  1  0  0  0  0
 40 41  1  0  0  0  0
 41 36  1  0  0  0  0
 40 42  1  1  0  0  0
 37 43  1  1  0  0  0
 38 44  1  1  0  0  0
 39 45  1  6  0  0  0
 46 47  1  0  0  0  0
 47 48  1  0  0  0  0
 48 49  1  0  0  0  0
 49 50  1  0  0  0  0
 50 51  1  0  0  0  0
 51 46  1  0  0  0  0
 47 52  1  1  0  0  0
 50 53  1  1  0  0  0
 46 54  1  6  0  0  0
 49 55  1  6  0  0  0
 56 57  1  0  0  0  0
 57 58  1  0  0  0  0
 58 59  1  0  0  0  0
 59 60  1  0  0  0  0
 60 61  1  0  0  0  0
 61 56  1  0  0  0  0
 57 62  1  1  0  0  0
 58 63  1  1  0  0  0
 59 53  1  6  0  0  0
 48 42  1  6  0  0  0
 60 30  1  1  0  0  0
M  END
>  <cdx:fragmentId>
5

$$$$
