98190.cdx
  Mrv1902 05222410202D          

 18 17  0  0  0  0            999 V2000
   12.1969   -8.6710    0.0000 C   0  0  0  0  0  0  0  0  0  0  0  0
   11.4825   -8.2585    0.0000 C   0  0  0  0  0  0  0  0  0  0  0  0
   10.7680   -8.6710    0.0000 C   0  0  0  0  0  0  0  0  0  0  0  0
   10.0535   -8.2585    0.0000 C   0  0  0  0  0  0  0  0  0  0  0  0
    9.3391   -8.6710    0.0000 C   0  0  0  0  0  0  0  0  0  0  0  0
    8.6246   -8.2585    0.0000 C   0  0  0  0  0  0  0  0  0  0  0  0
    7.9101   -8.6710    0.0000 C   0  0  0  0  0  0  0  0  0  0  0  0
    7.1957   -8.2585    0.0000 C   0  0  0  0  0  0  0  0  0  0  0  0
    2.1944   -8.6710    0.0000 C   0  0  0  0  0  0  0  0  0  0  0  0
    2.9088   -7.4335    0.0000 C   0  0  0  0  0  0  0  0  0  0  0  0
    2.9088   -8.2585    0.0000 C   0  0  0  0  0  0  0  0  0  0  0  0
    3.6233   -8.6710    0.0000 C   0  0  0  0  0  0  0  0  0  0  0  0
    6.4812   -8.6710    0.0000 O   0  0  0  0  0  0  0  0  0  0  0  0
    5.7667   -7.4335    0.0000 O   0  0  0  0  0  0  0  0  0  0  0  0
    4.3378   -8.2585    0.0000 O   0  0  0  0  0  0  0  0  0  0  0  0
    5.0522   -9.4960    0.0000 O   0  0  0  0  0  0  0  0  0  0  0  0
    5.7667   -8.2585    0.0000 C   0  0  0  0  0  0  0  0  0  0  0  0
    5.0522   -8.6710    0.0000 C   0  0  0  0  0  0  0  0  0  0  0  0
 13  8  1  0  0  0  0
  2  1  1  0  0  0  0
  3  2  1  0  0  0  0
  4  3  1  0  0  0  0
  5  4  1  0  0  0  0
  6  5  1  0  0  0  0
  7  6  1  0  0  0  0
  8  7  1  0  0  0  0
 15 12  1  0  0  0  0
  9 11  1  0  0  0  0
 11 10  1  0  0  0  0
 12 11  1  0  0  0  0
 17 13  1  0  0  0  0
 17 14  2  0  0  0  0
 18 15  1  0  0  0  0
 18 16  2  0  0  0  0
 18 17  1  0  0  0  0
M  END
>  <cdx:fragmentId>
5

$$$$
