98191.cdx
  Mrv1902 05222410212D          

  9  9  0  0  0  0            999 V2000
    7.1991   -8.0522    0.0000 C   0  0  0  0  0  0  0  0  0  0  0  0
    7.1991   -8.8772    0.0000 C   0  0  0  0  0  0  0  0  0  0  0  0
    6.4846   -9.2897    0.0000 C   0  0  0  0  0  0  0  0  0  0  0  0
    5.7701   -8.8772    0.0000 C   0  0  0  0  0  0  0  0  0  0  0  0
    5.7701   -8.0522    0.0000 C   0  0  0  0  0  0  0  0  0  0  0  0
    6.4846   -7.6397    0.0000 C   0  0  0  0  0  0  0  0  0  0  0  0
    7.9136   -7.6397    0.0000 O   0  0  0  0  0  0  0  0  0  0  0  0
    7.9136   -9.2897    0.0000 O   0  0  0  0  0  0  0  0  0  0  0  0
    8.6280   -8.8772    0.0000 C   0  0  0  0  0  0  0  0  0  0  0  0
  1  2  1  0  0  0  0
  2  3  2  0  0  0  0
  3  4  1  0  0  0  0
  4  5  2  0  0  0  0
  5  6  1  0  0  0  0
  1  6  2  0  0  0  0
  1  7  1  0  0  0  0
  8  9  1  0  0  0  0
  2  8  1  0  0  0  0
M  END
>  <cdx:fragmentId>
5

$$$$
