98193.cdx
  Mrv1902 05222410212D          

 78 86  0  0  0  0            999 V2000
    1.4696   -9.0532    0.0000 C   0  0  2  0  0  0  0  0  0  0  0  0
    1.4696   -9.6307    0.0000 C   0  0  1  0  0  0  0  0  0  0  0  0
    1.9698   -9.9194    0.0000 C   0  0  2  0  0  0  0  0  0  0  0  0
    2.4699   -9.6307    0.0000 C   0  0  1  0  0  0  0  0  0  0  0  0
    2.4699   -9.0532    0.0000 O   0  0  0  0  0  0  0  0  0  0  0  0
    1.9698   -8.7644    0.0000 C   0  0  0  0  0  0  0  0  0  0  0  0
    2.9700   -9.9194    0.0000 O   0  0  0  0  0  0  0  0  0  0  0  0
    3.4702   -9.6307    0.0000 C   0  0  1  0  0  0  0  0  0  0  0  0
    3.4702   -9.0532    0.0000 C   0  0  0  0  0  0  0  0  0  0  0  0
    3.9703   -9.9194    0.0000 C   0  0  2  0  0  0  0  0  0  0  0  0
    4.4704   -9.6307    0.0000 C   0  0  1  0  0  0  0  0  0  0  0  0
    4.4704   -9.0532    0.0000 C   0  0  2  0  0  0  0  0  0  0  0  0
    3.9703   -8.7644    0.0000 C   0  0  0  0  0  0  0  0  0  0  0  0
    4.9706   -9.9194    0.0000 C   0  0  0  0  0  0  0  0  0  0  0  0
    5.4707   -9.6307    0.0000 C   0  0  0  0  0  0  0  0  0  0  0  0
    5.4707   -9.0532    0.0000 C   0  0  2  0  0  0  0  0  0  0  0  0
    4.9706   -8.7644    0.0000 C   0  0  2  0  0  0  0  0  0  0  0  0
    5.9708   -8.7644    0.0000 C   0  0  1  0  0  0  0  0  0  0  0  0
    5.9708   -8.1869    0.0000 C   0  0  0  0  0  0  0  0  0  0  0  0
    5.4707   -7.8982    0.0000 C   0  0  0  0  0  0  0  0  0  0  0  0
    4.9706   -8.1869    0.0000 C   0  0  0  0  0  0  0  0  0  0  0  0
    6.4709   -9.0532    0.0000 C   0  0  0  0  0  0  0  0  0  0  0  0
    6.9711   -8.7644    0.0000 C   0  0  0  0  0  0  0  0  0  0  0  0
    6.9711   -8.1869    0.0000 C   0  0  2  0  0  0  0  0  0  0  0  0
    6.4709   -7.8982    0.0000 C   0  0  1  0  0  0  0  0  0  0  0  0
    7.4712   -7.8982    0.0000 C   0  0  0  0  0  0  0  0  0  0  0  0
    7.4712   -7.3207    0.0000 C   0  0  0  0  0  0  0  0  0  0  0  0
    6.9711   -7.0319    0.0000 C   0  0  0  0  0  0  0  0  0  0  0  0
    6.4709   -7.3207    0.0000 C   0  0  0  0  0  0  0  0  0  0  0  0
    7.9579   -9.3447    0.0000 O   0  0  0  0  0  0  0  0  0  0  0  0
    8.4580   -9.0559    0.0000 C   0  0  1  0  0  0  0  0  0  0  0  0
    8.4580   -8.4784    0.0000 C   0  0  1  0  0  0  0  0  0  0  0  0
    8.9582   -9.3447    0.0000 C   0  0  2  0  0  0  0  0  0  0  0  0
    9.4583   -9.0559    0.0000 C   0  0  1  0  0  0  0  0  0  0  0  0
    9.4583   -8.4784    0.0000 C   0  0  2  0  0  0  0  0  0  0  0  0
    8.9582   -8.1897    0.0000 O   0  0  0  0  0  0  0  0  0  0  0  0
    9.9584   -9.3447    0.0000 O   0  0  0  0  0  0  0  0  0  0  0  0
   10.4585   -8.4784    0.0000 O   0  0  0  0  0  0  0  0  0  0  0  0
    9.9584   -8.1897    0.0000 C   0  0  0  0  0  0  0  0  0  0  0  0
   10.9587   -8.1897    0.0000 C   0  0  1  0  0  0  0  0  0  0  0  0
   10.9587   -7.6122    0.0000 C   0  0  2  0  0  0  0  0  0  0  0  0
   10.4585   -7.3234    0.0000 O   0  0  0  0  0  0  0  0  0  0  0  0
   11.4588   -8.4784    0.0000 O   0  0  0  0  0  0  0  0  0  0  0  0
   11.9589   -8.1897    0.0000 C   0  0  1  0  0  0  0  0  0  0  0  0
   11.9589   -7.6122    0.0000 C   0  0  2  0  0  0  0  0  0  0  0  0
   11.4588   -7.3234    0.0000 C   0  0  2  0  0  0  0  0  0  0  0  0
   12.4591   -7.3234    0.0000 O   0  0  0  0  0  0  0  0  0  0  0  0
   12.4591   -6.7459    0.0000 C   0  0  0  0  0  0  0  0  0  0  0  0
   11.9589   -6.4572    0.0000 O   0  0  0  0  0  0  0  0  0  0  0  0
   11.4588   -6.7459    0.0000 O   0  0  0  0  0  0  0  0  0  0  0  0
   12.4591   -8.4784    0.0000 C   0  0  0  0  0  0  0  0  0  0  0  0
   12.9592   -8.1897    0.0000 O   0  0  0  0  0  0  0  0  0  0  0  0
   12.9592   -6.4572    0.0000 C   0  0  1  0  0  0  0  0  0  0  0  0
   12.9592   -5.8797    0.0000 C   0  0  1  0  0  0  0  0  0  0  0  0
   12.4591   -5.5909    0.0000 C   0  0  2  0  0  0  0  0  0  0  0  0
   11.9589   -5.8797    0.0000 C   0  0  2  0  0  0  0  0  0  0  0  0
    4.2590  -10.4195    0.0000 C   0  0  0  0  0  0  0  0  0  0  0  0
    3.9703  -10.9197    0.0000 O   0  0  0  0  0  0  0  0  0  0  0  0
    6.6823   -6.5318    0.0000 C   0  0  0  0  0  0  0  0  0  0  0  0
    7.2598   -6.5318    0.0000 C   0  0  0  0  0  0  0  0  0  0  0  0
    7.4712   -8.4757    0.0000 C   0  0  0  0  0  0  0  0  0  0  0  0
    7.9713   -8.1869    0.0000 O   0  0  0  0  0  0  0  0  0  0  0  0
    7.4712   -9.0532    0.0000 O   0  0  0  0  0  0  0  0  0  0  0  0
    0.9695   -8.7644    0.0000 O   0  0  0  0  0  0  0  0  0  0  0  0
    0.9695   -9.9194    0.0000 O   0  0  0  0  0  0  0  0  0  0  0  0
    3.6815  -10.4195    0.0000 C   0  0  0  0  0  0  0  0  0  0  0  0
    4.4704   -8.4757    0.0000 C   0  0  0  0  0  0  0  0  0  0  0  0
    5.4707   -8.4757    0.0000 C   0  0  0  0  0  0  0  0  0  0  0  0
    6.4709   -8.4757    0.0000 H   0  0  0  0  0  0  0  0  0  0  0  0
   11.4588   -5.5909    0.0000 C   0  0  0  0  0  0  0  0  0  0  0  0
   13.4593   -5.5909    0.0000 O   0  0  0  0  0  0  0  0  0  0  0  0
   13.4593   -6.7459    0.0000 O   0  0  0  0  0  0  0  0  0  0  0  0
    1.9698  -10.4969    0.0000 O   0  0  0  0  0  0  0  0  0  0  0  0
    5.9708   -9.3419    0.0000 C   0  0  0  0  0  0  0  0  0  0  0  0
    8.9582   -9.9222    0.0000 O   0  0  0  0  0  0  0  0  0  0  0  0
   12.4591   -5.0134    0.0000 O   0  0  0  0  0  0  0  0  0  0  0  0
    4.4704  -10.2082    0.0000 H   0  0  0  0  0  0  0  0  0  0  0  0
    4.9706   -9.3419    0.0000 H   0  0  0  0  0  0  0  0  0  0  0  0
  1  2  1  0  0  0  0
  2  3  1  0  0  0  0
  3  4  1  0  0  0  0
  4  5  1  0  0  0  0
  5  6  1  0  0  0  0
  6  1  1  0  0  0  0
  4  7  1  1  0  0  0
  8  7  1  1  0  0  0
  8  9  1  0  0  0  0
  8 10  1  0  0  0  0
 10 11  1  0  0  0  0
 11 12  1  0  0  0  0
 12 13  1  0  0  0  0
 13  9  1  0  0  0  0
 11 14  1  0  0  0  0
 14 15  1  0  0  0  0
 15 16  1  0  0  0  0
 16 17  1  0  0  0  0
 17 12  1  0  0  0  0
 16 18  1  0  0  0  0
 18 19  1  0  0  0  0
 19 20  2  0  0  0  0
 20 21  1  0  0  0  0
 21 17  1  0  0  0  0
 18 22  1  0  0  0  0
 22 23  1  0  0  0  0
 23 24  1  0  0  0  0
 24 25  1  0  0  0  0
 25 19  1  0  0  0  0
 24 26  1  0  0  0  0
 26 27  1  0  0  0  0
 27 28  1  0  0  0  0
 28 29  1  0  0  0  0
 29 25  1  0  0  0  0
 31 30  1  1  0  0  0
 31 32  1  0  0  0  0
 31 33  1  0  0  0  0
 33 34  1  0  0  0  0
 34 35  1  0  0  0  0
 35 36  1  0  0  0  0
 36 32  1  0  0  0  0
 34 37  1  1  0  0  0
 38 39  1  0  0  0  0
 35 39  1  6  0  0  0
 40 38  1  1  0  0  0
 40 41  1  0  0  0  0
 41 42  1  6  0  0  0
 40 43  1  0  0  0  0
 43 44  1  0  0  0  0
 44 45  1  0  0  0  0
 45 46  1  0  0  0  0
 46 41  1  0  0  0  0
 45 47  1  6  0  0  0
 47 48  1  0  0  0  0
 48 49  1  0  0  0  0
 46 50  1  1  0  0  0
 44 51  1  1  0  0  0
 51 52  1  0  0  0  0
 48 53  1  0  0  0  0
 53 54  1  0  0  0  0
 54 55  1  0  0  0  0
 55 56  1  0  0  0  0
 56 49  1  0  0  0  0
 10 57  1  6  0  0  0
 57 58  1  0  0  0  0
 28 59  1  0  0  0  0
 28 60  1  0  0  0  0
 24 61  1  1  0  0  0
 61 62  1  0  0  0  0
 61 63  2  0  0  0  0
  1 64  1  1  0  0  0
  2 65  1  1  0  0  0
 10 66  1  1  0  0  0
 12 67  1  1  0  0  0
 16 68  1  1  0  0  0
 25 69  1  1  0  0  0
 56 70  1  1  0  0  0
 54 71  1  1  0  0  0
 53 72  1  1  0  0  0
  3 73  1  6  0  0  0
 18 74  1  6  0  0  0
 33 75  1  6  0  0  0
 55 76  1  6  0  0  0
 11 77  1  6  0  0  0
 17 78  1  6  0  0  0
 32 62  1  6  0  0  0
M  END
>  <cdx:fragmentId>
5

$$$$
