98199.cdx
  Mrv1902 05222410232D          

 57 64  0  0  0  0            999 V2000
   13.6686  -10.4170    0.0000 C   0  0  1  0  0  0  0  0  0  0  0  0
   14.3831  -10.0045    0.0000 C   0  0  2  0  0  0  0  0  0  0  0  0
   15.1677  -10.2594    0.0000 C   0  0  0  0  0  0  0  0  0  0  0  0
   15.6526   -9.5920    0.0000 C   0  0  2  0  0  0  0  0  0  0  0  0
   16.4373   -9.3370    0.0000 O   0  0  0  0  0  0  0  0  0  0  0  0
   16.4373   -8.5120    0.0000 C   0  0  2  0  0  0  0  0  0  0  0  0
   15.6526   -8.2571    0.0000 C   0  0  2  0  0  0  0  0  0  0  0  0
   15.1677   -8.9245    0.0000 C   0  0  2  0  0  0  0  0  0  0  0  0
   14.3831   -9.1795    0.0000 C   0  0  1  0  0  0  0  0  0  0  0  0
   13.6686   -8.7670    0.0000 C   0  0  0  0  0  0  0  0  0  0  0  0
   12.9542   -9.1795    0.0000 C   0  0  0  0  0  0  0  0  0  0  0  0
   12.9542  -10.0045    0.0000 C   0  0  2  0  0  0  0  0  0  0  0  0
   12.2397  -10.4170    0.0000 C   0  0  1  0  0  0  0  0  0  0  0  0
   11.5252  -10.0045    0.0000 C   0  0  0  0  0  0  0  0  0  0  0  0
   10.8107  -10.4170    0.0000 C   0  0  0  0  0  0  0  0  0  0  0  0
   10.8107  -11.2420    0.0000 C   0  0  1  0  0  0  0  0  0  0  0  0
   11.5252  -11.6545    0.0000 C   0  0  0  0  0  0  0  0  0  0  0  0
   12.2397  -11.2420    0.0000 C   0  0  2  0  0  0  0  0  0  0  0  0
   12.9542  -11.6545    0.0000 C   0  0  0  0  0  0  0  0  0  0  0  0
   13.6686  -11.2420    0.0000 C   0  0  0  0  0  0  0  0  0  0  0  0
   16.3510   -7.6916    0.0000 O   0  0  0  0  0  0  0  0  0  0  0  0
   17.1909   -8.8476    0.0000 C   0  0  0  0  0  0  0  0  0  0  0  0
   17.8584   -8.3627    0.0000 C   0  0  0  0  0  0  0  0  0  0  0  0
   17.7721   -7.5422    0.0000 C   0  0  2  0  0  0  0  0  0  0  0  0
   17.0185   -7.2066    0.0000 C   0  0  0  0  0  0  0  0  0  0  0  0
   12.9542  -12.4795    0.0000 O   0  0  0  0  0  0  0  0  0  0  0  0
   12.2397   -9.5920    0.0000 C   0  0  0  0  0  0  0  0  0  0  0  0
   14.3831   -8.3545    0.0000 C   0  0  0  0  0  0  0  0  0  0  0  0
   15.3977   -7.4725    0.0000 C   0  0  0  0  0  0  0  0  0  0  0  0
   18.4396   -7.0573    0.0000 C   0  0  0  0  0  0  0  0  0  0  0  0
   10.0963  -11.6545    0.0000 O   0  0  0  0  0  0  0  0  0  0  0  0
   13.6686   -9.5920    0.0000 H   0  0  0  0  0  0  0  0  0  0  0  0
   14.3831  -10.8295    0.0000 H   0  0  0  0  0  0  0  0  0  0  0  0
   16.1376  -10.2594    0.0000 H   0  0  0  0  0  0  0  0  0  0  0  0
   14.8061   -8.1830    0.0000 H   0  0  0  0  0  0  0  0  0  0  0  0
   12.9542  -10.8295    0.0000 H   0  0  0  0  0  0  0  0  0  0  0  0
   12.2397  -12.0670    0.0000 H   0  0  0  0  0  0  0  0  0  0  0  0
    9.3714  -11.2394    0.0000 C   0  0  1  0  0  0  0  0  0  0  0  0
    8.6565  -11.6512    0.0000 C   0  0  2  0  0  0  0  0  0  0  0  0
    8.6557  -12.4762    0.0000 O   0  0  0  0  0  0  0  0  0  0  0  0
    7.9425  -11.2380    0.0000 C   0  0  1  0  0  0  0  0  0  0  0  0
    7.2276  -11.6498    0.0000 O   0  0  0  0  0  0  0  0  0  0  0  0
    7.9433  -10.4130    0.0000 C   0  0  2  0  0  0  0  0  0  0  0  0
    7.2293   -9.9998    0.0000 O   0  0  0  0  0  0  0  0  0  0  0  0
    8.6582  -10.0012    0.0000 C   0  0  2  0  0  0  0  0  0  0  0  0
    9.3723  -10.4144    0.0000 O   0  0  0  0  0  0  0  0  0  0  0  0
    8.6590   -9.1762    0.0000 C   0  0  0  0  0  0  0  0  0  0  0  0
    7.9450   -8.7630    0.0000 O   0  0  0  0  0  0  0  0  0  0  0  0
    7.9458   -7.9380    0.0000 C   0  0  1  0  0  0  0  0  0  0  0  0
    7.2317   -7.5248    0.0000 C   0  0  2  0  0  0  0  0  0  0  0  0
    6.5168   -7.9366    0.0000 O   0  0  0  0  0  0  0  0  0  0  0  0
    7.2326   -6.6998    0.0000 C   0  0  1  0  0  0  0  0  0  0  0  0
    6.5185   -6.2866    0.0000 O   0  0  0  0  0  0  0  0  0  0  0  0
    7.9474   -6.2880    0.0000 C   0  0  1  0  0  0  0  0  0  0  0  0
    7.9483   -5.4630    0.0000 O   0  0  0  0  0  0  0  0  0  0  0  0
    8.6615   -6.7012    0.0000 C   0  0  0  0  0  0  0  0  0  0  0  0
    8.6607   -7.5262    0.0000 O   0  0  0  0  0  0  0  0  0  0  0  0
  1  2  1  0  0  0  0
  2  3  1  0  0  0  0
  3  4  1  0  0  0  0
  4  5  1  0  0  0  0
  6  5  1  6  0  0  0
  6  7  1  0  0  0  0
  7  8  1  0  0  0  0
  8  9  1  0  0  0  0
  9 10  1  0  0  0  0
 10 11  1  0  0  0  0
 11 12  1  0  0  0  0
 12 13  1  0  0  0  0
 13 14  1  0  0  0  0
 14 15  1  0  0  0  0
 15 16  1  0  0  0  0
 16 17  1  0  0  0  0
 17 18  1  0  0  0  0
 18 19  1  0  0  0  0
 19 20  1  0  0  0  0
  1 20  1  0  0  0  0
  1 12  1  0  0  0  0
 13 18  1  0  0  0  0
  2  9  1  0  0  0  0
  4  8  1  0  0  0  0
 22 23  1  0  0  0  0
 23 24  1  0  0  0  0
 24 25  1  0  0  0  0
 21 25  1  0  0  0  0
  6 21  1  0  0  0  0
  6 22  1  0  0  0  0
 19 26  2  0  0  0  0
 13 27  1  1  0  0  0
  9 28  1  1  0  0  0
  7 29  1  6  0  0  0
 24 30  1  6  0  0  0
 16 31  1  1  0  0  0
  1 32  1  1  0  0  0
  2 33  1  6  0  0  0
  4 34  1  6  0  0  0
  8 35  1  6  0  0  0
 12 36  1  6  0  0  0
 18 37  1  6  0  0  0
 38 39  1  0  0  0  0
 39 40  1  6  0  0  0
 39 41  1  0  0  0  0
 41 42  1  1  0  0  0
 41 43  1  0  0  0  0
 43 44  1  6  0  0  0
 43 45  1  0  0  0  0
 45 46  1  0  0  0  0
 45 47  1  1  0  0  0
 47 48  1  0  0  0  0
 38 46  1  0  0  0  0
 49 50  1  0  0  0  0
 50 51  1  6  0  0  0
 50 52  1  0  0  0  0
 52 53  1  1  0  0  0
 52 54  1  0  0  0  0
 54 55  1  1  0  0  0
 54 56  1  0  0  0  0
 56 57  1  0  0  0  0
 49 57  1  0  0  0  0
 49 48  1  1  0  0  0
 38 31  1  1  0  0  0
M  END
>  <cdx:fragmentId>
5

$$$$
