98192.cdx
  Mrv1902 05222410212D          

 45 49  0  0  0  0            999 V2000
   11.0433   -7.5847    0.0000 O   0  0  0  0  0  0  0  0  0  0  0  0
   11.0433   -5.9347    0.0000 O   0  0  0  0  0  0  0  0  0  0  0  0
    8.8999   -6.3472    0.0000 C   0  0  0  0  0  0  0  0  0  0  0  0
    9.6143   -5.9347    0.0000 C   0  0  0  0  0  0  0  0  0  0  0  0
   10.3288   -6.3472    0.0000 C   0  0  0  0  0  0  0  0  0  0  0  0
   10.3288   -7.1722    0.0000 C   0  0  0  0  0  0  0  0  0  0  0  0
    9.6143   -7.5847    0.0000 C   0  0  0  0  0  0  0  0  0  0  0  0
    8.8999   -7.1722    0.0000 C   0  0  0  0  0  0  0  0  0  0  0  0
    6.0420   -9.6472    0.0000 O   0  0  0  0  0  0  0  0  0  0  0  0
    4.6130   -7.1722    0.0000 O   0  0  0  0  0  0  0  0  0  0  0  0
    7.4709   -9.6472    0.0000 O   0  0  0  0  0  0  0  0  0  0  0  0
    7.4709   -7.1722    0.0000 O   0  0  0  0  0  0  0  0  0  0  0  0
    6.7564   -7.5847    0.0000 C   0  0  0  0  0  0  0  0  0  0  0  0
    6.0420   -7.1722    0.0000 C   0  0  0  0  0  0  0  0  0  0  0  0
    5.3275   -7.5847    0.0000 C   0  0  0  0  0  0  0  0  0  0  0  0
    5.3275   -8.4097    0.0000 C   0  0  0  0  0  0  0  0  0  0  0  0
    6.0420   -8.8222    0.0000 C   0  0  0  0  0  0  0  0  0  0  0  0
    6.7564   -8.4097    0.0000 C   0  0  0  0  0  0  0  0  0  0  0  0
    7.4709   -8.8222    0.0000 C   0  0  0  0  0  0  0  0  0  0  0  0
    8.1854   -8.4097    0.0000 C   0  0  0  0  0  0  0  0  0  0  0  0
    8.1854   -7.5847    0.0000 C   0  0  0  0  0  0  0  0  0  0  0  0
    2.4662   -7.5762    0.0000 C   0  0  2  0  0  0  0  0  0  0  0  0
    2.4662   -8.4013    0.0000 C   0  0  2  0  0  0  0  0  0  0  0  0
    3.1806   -8.8138    0.0000 C   0  0  1  0  0  0  0  0  0  0  0  0
    3.8951   -8.4013    0.0000 C   0  0  2  0  0  0  0  0  0  0  0  0
    3.8951   -7.5762    0.0000 C   0  0  1  0  0  0  0  0  0  0  0  0
    3.1806   -7.1638    0.0000 O   0  0  0  0  0  0  0  0  0  0  0  0
    1.7517   -7.1638    0.0000 C   0  0  0  0  0  0  0  0  0  0  0  0
    3.1806   -9.6387    0.0000 O   0  0  0  0  0  0  0  0  0  0  0  0
    1.7517   -8.8138    0.0000 O   0  0  0  0  0  0  0  0  0  0  0  0
    4.6096   -8.8138    0.0000 O   0  0  0  0  0  0  0  0  0  0  0  0
    1.0372   -7.5762    0.0000 O   0  0  0  0  0  0  0  0  0  0  0  0
    1.7517   -6.3388    0.0000 O   0  0  0  0  0  0  0  0  0  0  0  0
   10.3247   -9.6499    0.0000 C   0  0  2  0  0  0  0  0  0  0  0  0
   11.0392  -10.0623    0.0000 C   0  0  2  0  0  0  0  0  0  0  0  0
   11.7536   -9.6497    0.0000 C   0  0  1  0  0  0  0  0  0  0  0  0
   11.7535   -8.8247    0.0000 C   0  0  2  0  0  0  0  0  0  0  0  0
   11.0389   -8.4123    0.0000 C   0  0  1  0  0  0  0  0  0  0  0  0
   10.3245   -8.8249    0.0000 O   0  0  0  0  0  0  0  0  0  0  0  0
    9.6102  -10.0626    0.0000 C   0  0  0  0  0  0  0  0  0  0  0  0
   12.4681  -10.0621    0.0000 O   0  0  0  0  0  0  0  0  0  0  0  0
   11.0393  -10.8873    0.0000 O   0  0  0  0  0  0  0  0  0  0  0  0
   12.4679   -8.4121    0.0000 O   0  0  0  0  0  0  0  0  0  0  0  0
    9.6104  -10.8876    0.0000 O   0  0  0  0  0  0  0  0  0  0  0  0
    8.8957   -9.6502    0.0000 O   0  0  0  0  0  0  0  0  0  0  0  0
 21  8  1  0  0  0  0
  6  1  1  0  0  0  0
  5  2  1  0  0  0  0
  8  3  2  0  0  0  0
  4  3  1  0  0  0  0
  5  4  2  0  0  0  0
  6  5  1  0  0  0  0
  7  6  2  0  0  0  0
  8  7  1  0  0  0  0
 17  9  1  0  0  0  0
 15 10  1  0  0  0  0
 19 11  2  0  0  0  0
 21 12  1  0  0  0  0
 13 12  1  0  0  0  0
 18 13  2  0  0  0  0
 14 13  1  0  0  0  0
 15 14  2  0  0  0  0
 16 15  1  0  0  0  0
 17 16  2  0  0  0  0
 18 17  1  0  0  0  0
 19 18  1  0  0  0  0
 20 19  1  0  0  0  0
 21 20  2  0  0  0  0
 22 23  1  0  0  0  0
 23 24  1  0  0  0  0
 24 25  1  0  0  0  0
 25 26  1  0  0  0  0
 26 27  1  0  0  0  0
 27 22  1  0  0  0  0
 22 28  1  1  0  0  0
 24 29  1  1  0  0  0
 23 30  1  6  0  0  0
 25 31  1  6  0  0  0
 28 32  1  0  0  0  0
 28 33  2  0  0  0  0
 34 35  1  0  0  0  0
 35 36  1  0  0  0  0
 36 37  1  0  0  0  0
 37 38  1  0  0  0  0
 38 39  1  0  0  0  0
 39 34  1  0  0  0  0
 34 40  1  1  0  0  0
 36 41  1  1  0  0  0
 35 42  1  6  0  0  0
 37 43  1  6  0  0  0
 40 44  1  0  0  0  0
 40 45  2  0  0  0  0
 26 10  1  1  0  0  0
 38  1  1  1  0  0  0
M  END
>  <cdx:fragmentId>
5

$$$$
