98208.cdx
  Mrv1902 05222410232D          

 18 20  0  0  0  0            999 V2000
    8.1181  -10.1373    0.0000 C   0  0  0  0  0  0  0  0  0  0  0  0
    8.9251   -9.9657    0.0000 C   0  0  0  0  0  0  0  0  0  0  0  0
    9.1801   -9.1811    0.0000 N   0  0  0  0  0  0  0  0  0  0  0  0
    8.6280   -8.5680    0.0000 C   0  0  0  0  0  0  0  0  0  0  0  0
    7.1536   -8.2546    0.0000 N   0  0  0  0  0  0  0  0  0  0  0  0
    6.4862   -8.7395    0.0000 C   0  0  0  0  0  0  0  0  0  0  0  0
    5.6792   -8.5680    0.0000 C   0  0  0  0  0  0  0  0  0  0  0  0
    5.1272   -9.1811    0.0000 C   0  0  0  0  0  0  0  0  0  0  0  0
    5.3821   -9.9657    0.0000 C   0  0  0  0  0  0  0  0  0  0  0  0
    6.1891  -10.1373    0.0000 C   0  0  0  0  0  0  0  0  0  0  0  0
    6.7411   -9.5242    0.0000 C   0  0  0  0  0  0  0  0  0  0  0  0
    7.5661   -9.5242    0.0000 C   0  0  0  0  0  0  0  0  0  0  0  0
    7.8211   -8.7395    0.0000 C   0  0  0  0  0  0  0  0  0  0  0  0
    5.4243   -7.7834    0.0000 O   0  0  0  0  0  0  0  0  0  0  0  0
    4.6173   -7.6119    0.0000 C   0  0  0  0  0  0  0  0  0  0  0  0
    8.8830   -7.7834    0.0000 C   0  0  0  0  0  0  0  0  0  0  0  0
    8.3309   -7.1703    0.0000 O   0  0  0  0  0  0  0  0  0  0  0  0
    9.6899   -7.6119    0.0000 O   0  0  0  0  0  0  0  0  0  0  0  0
  1  2  1  0  0  0  0
  2  3  2  0  0  0  0
  3  4  1  0  0  0  0
  5  6  1  0  0  0  0
  6  7  1  0  0  0  0
  7  8  2  0  0  0  0
  8  9  1  0  0  0  0
  9 10  2  0  0  0  0
 10 11  1  0  0  0  0
  6 11  2  0  0  0  0
 11 12  1  0  0  0  0
  1 12  2  0  0  0  0
 12 13  1  0  0  0  0
  4 13  2  0  0  0  0
  5 13  1  0  0  0  0
  7 14  1  0  0  0  0
 14 15  1  0  0  0  0
  4 16  1  0  0  0  0
 16 17  2  0  0  0  0
 16 18  1  0  0  0  0
M  END
>  <cdx:fragmentId>
101

$$$$
