98203.cdx
  Mrv1902 05222410252D          

 21 22  0  0  0  0            999 V2000
    6.0366   -8.1675    0.0000 C   0  0  2  0  0  0  0  0  0  0  0  0
    6.0366   -8.9925    0.0000 C   0  0  1  0  0  0  0  0  0  0  0  0
    6.6816   -9.5069    0.0000 C   0  0  2  0  0  0  0  0  0  0  0  0
    7.4859   -9.3233    0.0000 C   0  0  1  0  0  0  0  0  0  0  0  0
    7.8439   -8.5800    0.0000 C   0  0  2  0  0  0  0  0  0  0  0  0
    7.4859   -7.8367    0.0000 C   0  0  0  0  0  0  0  0  0  0  0  0
    6.6816   -7.6531    0.0000 C   0  0  0  0  0  0  0  0  0  0  0  0
    5.2520   -7.9126    0.0000 C   0  0  0  0  0  0  0  0  0  0  0  0
    4.7670   -8.5800    0.0000 C   0  0  0  0  0  0  0  0  0  0  0  0
    5.2520   -9.2474    0.0000 C   0  0  0  0  0  0  0  0  0  0  0  0
    7.9507  -10.0049    0.0000 C   0  0  0  0  0  0  0  0  0  0  0  0
    8.7733   -9.9433    0.0000 C   0  0  0  0  0  0  0  0  0  0  0  0
    9.1313   -9.2000    0.0000 O   0  0  0  0  0  0  0  0  0  0  0  0
    8.6666   -8.5183    0.0000 O   0  0  0  0  0  0  0  0  0  0  0  0
    4.9970  -10.0321    0.0000 C   0  0  0  0  0  0  0  0  0  0  0  0
    6.4980   -6.8488    0.0000 C   0  0  0  0  0  0  0  0  0  0  0  0
    7.5927  -10.7482    0.0000 C   0  0  0  0  0  0  0  0  0  0  0  0
    9.2381  -10.6249    0.0000 O   0  0  0  0  0  0  0  0  0  0  0  0
    6.8335   -8.3810    0.0000 O   0  0  0  0  0  0  0  0  0  0  0  0
    5.9749   -9.8152    0.0000 H   0  0  0  0  0  0  0  0  0  0  0  0
    6.4980  -10.3112    0.0000 O   0  0  0  0  0  0  0  0  0  0  0  0
  1  2  1  0  0  0  0
  2  3  1  0  0  0  0
  3  4  1  0  0  0  0
  4  5  1  0  0  0  0
  5  6  1  0  0  0  0
  6  7  2  0  0  0  0
  7  1  1  0  0  0  0
  1  8  1  0  0  0  0
  8  9  1  0  0  0  0
  9 10  2  0  0  0  0
 10  2  1  0  0  0  0
  4 11  1  1  0  0  0
 11 12  1  0  0  0  0
 12 13  1  0  0  0  0
  5 14  1  6  0  0  0
 10 15  1  0  0  0  0
  7 16  1  0  0  0  0
 11 17  2  0  0  0  0
 12 18  2  0  0  0  0
  1 19  1  6  0  0  0
  2 20  1  6  0  0  0
  3 21  1  6  0  0  0
M  END
>  <cdx:fragmentId>
5

$$$$
