98205.cdx
  Mrv1902 05222410232D          

 20 21  0  0  0  0            999 V2000
    7.2898   -6.0597    0.0000 C   0  0  0  0  0  0  0  0  0  0  0  0
    8.0042   -6.4722    0.0000 C   0  0  0  0  0  0  0  0  0  0  0  0
    5.8216   -6.1367    0.0000 O   0  0  0  0  0  0  0  0  0  0  0  0
    6.5753   -6.4722    0.0000 C   0  0  0  0  0  0  0  0  0  0  0  0
    6.4891   -7.2927    0.0000 C   0  0  0  0  0  0  0  0  0  0  0  0
    5.6821   -7.4642    0.0000 C   0  0  0  0  0  0  0  0  0  0  0  0
    5.2696   -6.7498    0.0000 C   0  0  0  0  0  0  0  0  0  0  0  0
    7.1022   -7.8447    0.0000 O   0  0  0  0  0  0  0  0  0  0  0  0
    7.2898   -5.2347    0.0000 O   0  0  0  0  0  0  0  0  0  0  0  0
    6.8886   -8.6416    0.0000 C   0  0  1  0  0  0  0  0  0  0  0  0
    6.0917   -8.8552    0.0000 O   0  0  0  0  0  0  0  0  0  0  0  0
    5.8782   -9.6520    0.0000 C   0  0  1  0  0  0  0  0  0  0  0  0
    6.4616  -10.2354    0.0000 C   0  0  2  0  0  0  0  0  0  0  0  0
    7.2585  -10.0219    0.0000 C   0  0  1  0  0  0  0  0  0  0  0  0
    7.4720   -9.2250    0.0000 C   0  0  1  0  0  0  0  0  0  0  0  0
    5.0813   -9.8656    0.0000 C   0  0  0  0  0  0  0  0  0  0  0  0
    7.8418  -10.6052    0.0000 O   0  0  0  0  0  0  0  0  0  0  0  0
    6.2481  -11.0323    0.0000 O   0  0  0  0  0  0  0  0  0  0  0  0
    8.2689   -9.0115    0.0000 O   0  0  0  0  0  0  0  0  0  0  0  0
    4.8678  -10.6625    0.0000 O   0  0  0  0  0  0  0  0  0  0  0  0
  1  2  1  0  0  0  0
  3  4  1  0  0  0  0
  4  5  2  0  0  0  0
  5  6  1  0  0  0  0
  6  7  2  0  0  0  0
  3  7  1  0  0  0  0
  5  8  1  0  0  0  0
  1  4  1  0  0  0  0
  1  9  2  0  0  0  0
 10  8  1  6  0  0  0
 10 11  1  0  0  0  0
 11 12  1  0  0  0  0
 12 13  1  0  0  0  0
 13 14  1  0  0  0  0
 14 15  1  0  0  0  0
 15 10  1  0  0  0  0
 12 16  1  1  0  0  0
 14 17  1  1  0  0  0
 13 18  1  6  0  0  0
 15 19  1  6  0  0  0
 16 20  1  0  0  0  0
M  END
>  <cdx:fragmentId>
29

$$$$
