98215.cdx
  Mrv1902 05222410252D          

 15 17  0  0  0  0            999 V2000
    7.1337   -4.7767    0.0000 N   0  0  0  0  0  0  0  0  0  0  0  0
    7.8011   -5.2616    0.0000 C   0  0  0  0  0  0  0  0  0  0  0  0
    7.5462   -6.0462    0.0000 C   0  0  0  0  0  0  0  0  0  0  0  0
    6.7212   -6.0462    0.0000 C   0  0  0  0  0  0  0  0  0  0  0  0
    6.1691   -6.6593    0.0000 C   0  0  0  0  0  0  0  0  0  0  0  0
    5.3622   -6.4878    0.0000 C   0  0  0  0  0  0  0  0  0  0  0  0
    5.1072   -5.7031    0.0000 C   0  0  0  0  0  0  0  0  0  0  0  0
    5.6593   -5.0901    0.0000 C   0  0  0  0  0  0  0  0  0  0  0  0
    6.4662   -5.2616    0.0000 C   0  0  0  0  0  0  0  0  0  0  0  0
    8.6081   -5.0901    0.0000 C   0  0  0  0  0  0  0  0  0  0  0  0
    8.0982   -6.6593    0.0000 C   0  0  0  0  0  0  0  0  0  0  0  0
    8.9052   -6.4878    0.0000 C   0  0  0  0  0  0  0  0  0  0  0  0
    9.1601   -5.7031    0.0000 N   0  0  0  0  0  0  0  0  0  0  0  0
    8.8630   -4.3054    0.0000 C   0  0  0  0  0  0  0  0  0  0  0  0
    8.3110   -3.6923    0.0000 O   0  0  0  0  0  0  0  0  0  0  0  0
  1  2  1  0  0  0  0
  2  3  2  0  0  0  0
  3  4  1  0  0  0  0
  4  5  1  0  0  0  0
  5  6  2  0  0  0  0
  6  7  1  0  0  0  0
  7  8  2  0  0  0  0
  8  9  1  0  0  0  0
  1  9  1  0  0  0  0
  4  9  2  0  0  0  0
 11 12  2  0  0  0  0
 12 13  1  0  0  0  0
 10 13  2  0  0  0  0
  2 10  1  0  0  0  0
  3 11  1  0  0  0  0
 10 14  1  0  0  0  0
 14 15  2  0  0  0  0
M  END
>  <cdx:fragmentId>
3500

$$$$
