98211.cdx
  Mrv1902 05222410232D          

 19 22  0  0  0  0            999 V2000
    7.6684  -10.3791    0.0000 C   0  0  0  0  0  0  0  0  0  0  0  0
    8.4753  -10.2076    0.0000 C   0  0  0  0  0  0  0  0  0  0  0  0
    8.7303   -9.4230    0.0000 N   0  0  0  0  0  0  0  0  0  0  0  0
    8.1782   -8.8099    0.0000 C   0  0  0  0  0  0  0  0  0  0  0  0
    8.3151   -7.9962    0.0000 C   0  0  0  0  0  0  0  0  0  0  0  0
    7.6948   -7.4522    0.0000 C   0  0  0  0  0  0  0  0  0  0  0  0
    6.9069   -7.6969    0.0000 C   0  0  0  0  0  0  0  0  0  0  0  0
    6.7038   -8.4965    0.0000 N   0  0  0  0  0  0  0  0  0  0  0  0
    6.0364   -8.9814    0.0000 C   0  0  0  0  0  0  0  0  0  0  0  0
    5.2294   -8.8099    0.0000 C   0  0  0  0  0  0  0  0  0  0  0  0
    4.6774   -9.4230    0.0000 C   0  0  0  0  0  0  0  0  0  0  0  0
    4.9323  -10.2076    0.0000 C   0  0  0  0  0  0  0  0  0  0  0  0
    5.7393  -10.3791    0.0000 C   0  0  0  0  0  0  0  0  0  0  0  0
    6.2913   -9.7660    0.0000 C   0  0  0  0  0  0  0  0  0  0  0  0
    7.1163   -9.7660    0.0000 C   0  0  0  0  0  0  0  0  0  0  0  0
    7.3713   -8.9814    0.0000 C   0  0  0  0  0  0  0  0  0  0  0  0
    6.3085   -7.1290    0.0000 O   0  0  0  0  0  0  0  0  0  0  0  0
    9.0922   -7.7194    0.0000 O   0  0  0  0  0  0  0  0  0  0  0  0
    9.7205   -8.2541    0.0000 C   0  0  0  0  0  0  0  0  0  0  0  0
  1  2  1  0  0  0  0
  2  3  2  0  0  0  0
  3  4  1  0  0  0  0
  4  5  1  0  0  0  0
  5  6  2  0  0  0  0
  6  7  1  0  0  0  0
  7  8  1  0  0  0  0
  8  9  1  0  0  0  0
  9 10  1  0  0  0  0
 10 11  2  0  0  0  0
 11 12  1  0  0  0  0
 12 13  2  0  0  0  0
 13 14  1  0  0  0  0
  9 14  2  0  0  0  0
 14 15  1  0  0  0  0
  1 15  2  0  0  0  0
 15 16  1  0  0  0  0
  4 16  2  0  0  0  0
  8 16  1  0  0  0  0
  7 17  2  0  0  0  0
 18 19  1  0  0  0  0
  5 18  1  0  0  0  0
M  END
>  <cdx:fragmentId>
96

$$$$
