98216.cdx
  Mrv1902 05222410252D          

 21 23  0  0  0  0            999 V2000
    7.0237   -5.0727    0.0000 N   0  0  0  0  0  0  0  0  0  0  0  0
    7.6911   -5.5576    0.0000 C   0  0  0  0  0  0  0  0  0  0  0  0
    7.4362   -6.3423    0.0000 C   0  0  0  0  0  0  0  0  0  0  0  0
    6.6112   -6.3423    0.0000 C   0  0  0  0  0  0  0  0  0  0  0  0
    6.0591   -6.9554    0.0000 C   0  0  0  0  0  0  0  0  0  0  0  0
    5.2522   -6.7838    0.0000 C   0  0  0  0  0  0  0  0  0  0  0  0
    4.9972   -5.9992    0.0000 C   0  0  0  0  0  0  0  0  0  0  0  0
    5.5493   -5.3861    0.0000 C   0  0  0  0  0  0  0  0  0  0  0  0
    6.3562   -5.5576    0.0000 C   0  0  0  0  0  0  0  0  0  0  0  0
    8.4981   -5.3861    0.0000 C   0  0  0  0  0  0  0  0  0  0  0  0
    7.9882   -6.9554    0.0000 C   0  0  0  0  0  0  0  0  0  0  0  0
    8.7952   -6.7838    0.0000 C   0  0  0  0  0  0  0  0  0  0  0  0
    9.0501   -5.9992    0.0000 N   0  0  0  0  0  0  0  0  0  0  0  0
    8.7530   -4.6015    0.0000 C   0  0  0  0  0  0  0  0  0  0  0  0
    8.2010   -3.9884    0.0000 O   0  0  0  0  0  0  0  0  0  0  0  0
    9.5600   -4.4300    0.0000 O   0  0  0  0  0  0  0  0  0  0  0  0
    9.7735   -3.6331    0.0000 C   0  0  0  0  0  0  0  0  0  0  0  0
    7.7333   -7.7400    0.0000 O   0  0  0  0  0  0  0  0  0  0  0  0
    6.9364   -7.9535    0.0000 C   0  0  0  0  0  0  0  0  0  0  0  0
    5.2943   -4.6015    0.0000 O   0  0  0  0  0  0  0  0  0  0  0  0
    5.8464   -3.9884    0.0000 C   0  0  0  0  0  0  0  0  0  0  0  0
  1  2  1  0  0  0  0
  2  3  2  0  0  0  0
  3  4  1  0  0  0  0
  4  5  1  0  0  0  0
  5  6  2  0  0  0  0
  6  7  1  0  0  0  0
  7  8  2  0  0  0  0
  8  9  1  0  0  0  0
  1  9  1  0  0  0  0
  4  9  2  0  0  0  0
 11 12  2  0  0  0  0
 12 13  1  0  0  0  0
 10 13  2  0  0  0  0
  2 10  1  0  0  0  0
  3 11  1  0  0  0  0
 10 14  1  0  0  0  0
 14 15  2  0  0  0  0
 14 16  1  0  0  0  0
 16 17  1  0  0  0  0
 11 18  1  0  0  0  0
 18 19  1  0  0  0  0
  8 20  1  0  0  0  0
 20 21  1  0  0  0  0
M  END
>  <cdx:fragmentId>
4380

$$$$
