98212.cdx
  Mrv1902 05222410242D          

 18 20  0  0  0  0            999 V2000
    7.3052   -8.8027    0.0000 C   0  0  0  0  0  0  0  0  0  0  0  0
    8.1122   -8.6312    0.0000 C   0  0  0  0  0  0  0  0  0  0  0  0
    8.3672   -7.8466    0.0000 N   0  0  0  0  0  0  0  0  0  0  0  0
    7.8151   -7.2335    0.0000 C   0  0  0  0  0  0  0  0  0  0  0  0
    6.3407   -6.9201    0.0000 N   0  0  0  0  0  0  0  0  0  0  0  0
    5.6733   -7.4050    0.0000 C   0  0  0  0  0  0  0  0  0  0  0  0
    4.8663   -7.2335    0.0000 C   0  0  0  0  0  0  0  0  0  0  0  0
    4.3143   -7.8466    0.0000 C   0  0  0  0  0  0  0  0  0  0  0  0
    4.5692   -8.6312    0.0000 C   0  0  0  0  0  0  0  0  0  0  0  0
    5.3762   -8.8027    0.0000 C   0  0  0  0  0  0  0  0  0  0  0  0
    5.9282   -8.1896    0.0000 C   0  0  0  0  0  0  0  0  0  0  0  0
    6.7532   -8.1896    0.0000 C   0  0  0  0  0  0  0  0  0  0  0  0
    7.0082   -7.4050    0.0000 C   0  0  0  0  0  0  0  0  0  0  0  0
    8.0701   -6.4488    0.0000 C   0  0  0  0  0  0  0  0  0  0  0  0
    7.5180   -5.8357    0.0000 O   0  0  0  0  0  0  0  0  0  0  0  0
    8.8770   -6.2773    0.0000 O   0  0  0  0  0  0  0  0  0  0  0  0
    7.7730   -5.0511    0.0000 C   0  0  0  0  0  0  0  0  0  0  0  0
    9.4291   -6.8904    0.0000 C   0  0  0  0  0  0  0  0  0  0  0  0
  1  2  1  0  0  0  0
  2  3  2  0  0  0  0
  3  4  1  0  0  0  0
  5  6  1  0  0  0  0
  6  7  1  0  0  0  0
  7  8  2  0  0  0  0
  8  9  1  0  0  0  0
  9 10  2  0  0  0  0
 10 11  1  0  0  0  0
  6 11  2  0  0  0  0
 11 12  1  0  0  0  0
  1 12  2  0  0  0  0
 12 13  1  0  0  0  0
  4 13  2  0  0  0  0
  5 13  1  0  0  0  0
  4 14  1  0  0  0  0
 14 15  1  0  0  0  0
 14 16  1  0  0  0  0
 15 17  1  0  0  0  0
 16 18  1  0  0  0  0
M  END
>  <cdx:fragmentId>
109

$$$$
