98222.cdx
  Mrv1902 05222410222D          

 19 22  0  0  0  0            999 V2000
    8.1167   -9.6420    0.0000 C   0  0  0  0  0  0  0  0  0  0  0  0
    8.9237   -9.4704    0.0000 C   0  0  0  0  0  0  0  0  0  0  0  0
    9.1787   -8.6858    0.0000 N   0  0  0  0  0  0  0  0  0  0  0  0
    8.6266   -8.0727    0.0000 C   0  0  0  0  0  0  0  0  0  0  0  0
    8.7635   -7.2590    0.0000 C   0  0  0  0  0  0  0  0  0  0  0  0
    8.1432   -6.7151    0.0000 C   0  0  0  0  0  0  0  0  0  0  0  0
    7.3553   -6.9597    0.0000 C   0  0  0  0  0  0  0  0  0  0  0  0
    7.1522   -7.7593    0.0000 N   0  0  0  0  0  0  0  0  0  0  0  0
    6.4848   -8.2443    0.0000 C   0  0  0  0  0  0  0  0  0  0  0  0
    5.6778   -8.0727    0.0000 C   0  0  0  0  0  0  0  0  0  0  0  0
    5.1258   -8.6858    0.0000 C   0  0  0  0  0  0  0  0  0  0  0  0
    5.3807   -9.4704    0.0000 C   0  0  0  0  0  0  0  0  0  0  0  0
    6.1877   -9.6420    0.0000 C   0  0  0  0  0  0  0  0  0  0  0  0
    6.7397   -9.0289    0.0000 C   0  0  0  0  0  0  0  0  0  0  0  0
    7.5647   -9.0289    0.0000 C   0  0  0  0  0  0  0  0  0  0  0  0
    7.8197   -8.2443    0.0000 C   0  0  0  0  0  0  0  0  0  0  0  0
    6.7569   -6.3918    0.0000 O   0  0  0  0  0  0  0  0  0  0  0  0
    7.8618  -10.4266    0.0000 O   0  0  0  0  0  0  0  0  0  0  0  0
    7.0548  -10.5981    0.0000 C   0  0  0  0  0  0  0  0  0  0  0  0
  1  2  1  0  0  0  0
  2  3  2  0  0  0  0
  3  4  1  0  0  0  0
  4  5  1  0  0  0  0
  5  6  2  0  0  0  0
  6  7  1  0  0  0  0
  7  8  1  0  0  0  0
  8  9  1  0  0  0  0
  9 10  1  0  0  0  0
 10 11  2  0  0  0  0
 11 12  1  0  0  0  0
 12 13  2  0  0  0  0
 13 14  1  0  0  0  0
  9 14  2  0  0  0  0
 14 15  1  0  0  0  0
  1 15  2  0  0  0  0
 15 16  1  0  0  0  0
  4 16  2  0  0  0  0
  8 16  1  0  0  0  0
  7 17  2  0  0  0  0
 18 19  1  0  0  0  0
  1 18  1  0  0  0  0
M  END
>  <cdx:fragmentId>
20881

$$$$
