98223.cdx
  Mrv1902 05222410222D          

 14 13  0  0  0  0            999 V2000
    8.0000   -2.9192    0.0000 C   0  0  0  0  0  0  0  0  0  0  0  0
    7.9863   -2.0943    0.0000 O   0  0  0  0  0  0  0  0  0  0  0  0
    8.7212   -3.3198    0.0000 O   0  0  0  0  0  0  0  0  0  0  0  0
    5.2247   -7.9160    0.0000 O   0  0  0  0  0  0  0  0  0  0  0  0
    4.4898   -6.6905    0.0000 O   0  0  0  0  0  0  0  0  0  0  0  0
    6.5713   -2.9429    0.0000 N   0  0  0  0  0  0  0  0  0  0  0  0
    7.2925   -3.3435    0.0000 C   0  0  1  0  0  0  0  0  0  0  0  0
    7.3062   -4.1684    0.0000 C   0  0  0  0  0  0  0  0  0  0  0  0
    6.5987   -4.5927    0.0000 Se  0  0  0  0  0  0  0  0  0  0  0  0
    6.6123   -5.4176    0.0000 C   0  0  0  0  0  0  0  0  0  0  0  0
    5.9048   -5.8419    0.0000 C   0  0  0  0  0  0  0  0  0  0  0  0
    5.9185   -6.6668    0.0000 C   0  0  2  0  0  0  0  0  0  0  0  0
    6.6397   -7.0674    0.0000 N   0  0  0  0  0  0  0  0  0  0  0  0
    5.2110   -7.0911    0.0000 C   0  0  0  0  0  0  0  0  0  0  0  0
 14  4  1  0  0  0  0
 14  5  2  0  0  0  0
  7  1  1  0  0  0  0
  7  6  1  6  0  0  0
  8  7  1  0  0  0  0
  9  8  1  0  0  0  0
 10  9  1  0  0  0  0
 11 10  1  0  0  0  0
 12 11  1  0  0  0  0
 14 12  1  0  0  0  0
 12 13  1  6  0  0  0
  1  2  2  0  0  0  0
  1  3  1  0  0  0  0
M  END
>  <cdx:groupId>
43

>  <cdx:fragmentId>
5

$$$$
