98234.cdx
  Mrv1902 05222410232D          

 34 37  0  0  0  0            999 V2000
    9.6702   -9.3172    0.0000 O   0  0  0  0  0  0  0  0  0  0  0  0
    8.2412   -7.6672    0.0000 C   0  0  0  0  0  0  0  0  0  0  0  0
    8.9557   -8.0797    0.0000 C   0  0  0  0  0  0  0  0  0  0  0  0
    8.9557   -8.9047    0.0000 C   0  0  0  0  0  0  0  0  0  0  0  0
    8.2412   -9.3172    0.0000 C   0  0  0  0  0  0  0  0  0  0  0  0
    7.5268   -8.9047    0.0000 C   0  0  0  0  0  0  0  0  0  0  0  0
    7.5268   -8.0797    0.0000 C   0  0  0  0  0  0  0  0  0  0  0  0
    6.8123   -7.6672    0.0000 C   0  0  0  0  0  0  0  0  0  0  0  0
    3.2399   -5.6047    0.0000 C   0  0  0  0  0  0  0  0  0  0  0  0
    3.9544   -5.1922    0.0000 O   0  0  0  0  0  0  0  0  0  0  0  0
    7.9393   -7.1442    0.0000 C   0  0  0  0  0  0  0  0  0  0  0  0
    8.3518   -6.4297    0.0000 C   0  0  0  0  0  0  0  0  0  0  0  0
    3.9544   -6.8422    0.0000 O   0  0  0  0  0  0  0  0  0  0  0  0
    6.0978   -6.4297    0.0000 C   0  0  0  0  0  0  0  0  0  0  0  0
    5.3834   -6.8422    0.0000 C   0  0  0  0  0  0  0  0  0  0  0  0
    4.6689   -6.4297    0.0000 C   0  0  0  0  0  0  0  0  0  0  0  0
    4.6689   -5.6047    0.0000 C   0  0  0  0  0  0  0  0  0  0  0  0
    5.3834   -5.1922    0.0000 C   0  0  0  0  0  0  0  0  0  0  0  0
    6.0978   -5.6047    0.0000 C   0  0  0  0  0  0  0  0  0  0  0  0
    6.8123   -5.1922    0.0000 C   0  0  0  0  0  0  0  0  0  0  0  0
    7.5268   -5.6047    0.0000 C   0  0  0  0  0  0  0  0  0  0  0  0
    7.5268   -6.4297    0.0000 N   0  3  0  0  0  0  0  0  0  0  0  0
    6.8123   -6.8422    0.0000 C   0  0  2  0  0  0  0  0  0  0  0  0
    8.9636  -11.3764    0.0000 C   0  0  2  0  0  0  0  0  0  0  0  0
    9.6793  -11.7869    0.0000 C   0  0  2  0  0  0  0  0  0  0  0  0
   10.3926  -11.3723    0.0000 C   0  0  1  0  0  0  0  0  0  0  0  0
   10.3902  -10.5473    0.0000 C   0  0  2  0  0  0  0  0  0  0  0  0
    9.6746  -10.1369    0.0000 C   0  0  1  0  0  0  0  0  0  0  0  0
    8.9613  -10.5514    0.0000 O   0  0  0  0  0  0  0  0  0  0  0  0
    8.2504  -11.7910    0.0000 C   0  0  0  0  0  0  0  0  0  0  0  0
   11.1082  -11.7828    0.0000 O   0  0  0  0  0  0  0  0  0  0  0  0
    9.6817  -12.6119    0.0000 O   0  0  0  0  0  0  0  0  0  0  0  0
   11.1035  -10.1328    0.0000 O   0  0  0  0  0  0  0  0  0  0  0  0
    8.2527  -12.6160    0.0000 O   0  0  0  0  0  0  0  0  0  0  0  0
 23  8  1  6  0  0  0
  8  7  1  0  0  0  0
  4  1  1  0  0  0  0
  7  2  2  0  0  0  0
  3  2  1  0  0  0  0
  4  3  2  0  0  0  0
  5  4  1  0  0  0  0
  6  5  2  0  0  0  0
  7  6  1  0  0  0  0
 17 10  1  0  0  0  0
 10  9  1  0  0  0  0
 22 11  1  0  0  0  0
 22 12  1  0  0  0  0
 16 13  1  0  0  0  0
 19 14  2  0  0  0  0
 23 14  1  0  0  0  0
 15 14  1  0  0  0  0
 16 15  2  0  0  0  0
 17 16  1  0  0  0  0
 18 17  2  0  0  0  0
 19 18  1  0  0  0  0
 20 19  1  0  0  0  0
 21 20  1  0  0  0  0
 22 21  1  0  0  0  0
 23 22  1  0  0  0  0
 24 25  1  0  0  0  0
 25 26  1  0  0  0  0
 26 27  1  0  0  0  0
 27 28  1  0  0  0  0
 28 29  1  0  0  0  0
 29 24  1  0  0  0  0
 24 30  1  1  0  0  0
 26 31  1  1  0  0  0
 25 32  1  6  0  0  0
 27 33  1  6  0  0  0
 30 34  1  0  0  0  0
 28  1  1  1  0  0  0
M  CHG  1  22   1
M  END
>  <cdx:fragmentId>
5

$$$$
