98233.cdx
  Mrv1902 05222410212D          

 98108  0  0  0  0            999 V2000
   11.5014   -9.5601    0.0000 C   0  0  0  0  0  0  0  0  0  0  0  0
   11.5009  -10.3851    0.0000 C   0  0  1  0  0  0  0  0  0  0  0  0
   12.2151  -10.7980    0.0000 C   0  0  0  0  0  0  0  0  0  0  0  0
   12.9298  -10.3859    0.0000 C   0  0  1  0  0  0  0  0  0  0  0  0
   12.9303   -9.5609    0.0000 C   0  0  2  0  0  0  0  0  0  0  0  0
   12.2161   -9.1480    0.0000 C   0  0  0  0  0  0  0  0  0  0  0  0
   13.6440  -10.7989    0.0000 C   0  0  0  0  0  0  0  0  0  0  0  0
   14.3588  -10.3868    0.0000 C   0  0  0  0  0  0  0  0  0  0  0  0
   14.3592   -9.5618    0.0000 C   0  0  2  0  0  0  0  0  0  0  0  0
   13.6450   -9.1489    0.0000 C   0  0  2  0  0  0  0  0  0  0  0  0
   15.0740   -9.1497    0.0000 C   0  0  1  0  0  0  0  0  0  0  0  0
   15.0744   -8.3247    0.0000 C   0  0  0  0  0  0  0  0  0  0  0  0
   14.3602   -7.9118    0.0000 C   0  0  0  0  0  0  0  0  0  0  0  0
   13.6455   -8.3239    0.0000 C   0  0  0  0  0  0  0  0  0  0  0  0
   15.7882   -9.5626    0.0000 C   0  0  0  0  0  0  0  0  0  0  0  0
   16.5029   -9.1505    0.0000 C   0  0  0  0  0  0  0  0  0  0  0  0
   16.5034   -8.3255    0.0000 C   0  0  2  0  0  0  0  0  0  0  0  0
   15.7891   -7.9126    0.0000 C   0  0  1  0  0  0  0  0  0  0  0  0
   17.2181   -7.9135    0.0000 C   0  0  0  0  0  0  0  0  0  0  0  0
   17.2186   -7.0885    0.0000 C   0  0  0  0  0  0  0  0  0  0  0  0
   16.5043   -6.6755    0.0000 C   0  0  0  0  0  0  0  0  0  0  0  0
   15.7896   -7.0876    0.0000 C   0  0  0  0  0  0  0  0  0  0  0  0
   12.9308   -8.7359    0.0000 C   0  0  0  0  0  0  0  0  0  0  0  0
   14.3597   -8.7368    0.0000 C   0  0  0  0  0  0  0  0  0  0  0  0
   16.0923   -5.9608    0.0000 C   0  0  0  0  0  0  0  0  0  0  0  0
   17.2176   -8.7385    0.0000 C   0  0  0  0  0  0  0  0  0  0  0  0
   11.8022  -11.5123    0.0000 C   0  0  0  0  0  0  0  0  0  0  0  0
   10.7862  -10.7972    0.0000 O   0  0  0  0  0  0  0  0  0  0  0  0
   12.6272  -11.5127    0.0000 C   0  0  0  0  0  0  0  0  0  0  0  0
   15.0735   -9.9747    0.0000 C   0  0  0  0  0  0  0  0  0  0  0  0
   16.9173   -5.9613    0.0000 C   0  0  0  0  0  0  0  0  0  0  0  0
   17.9323   -8.3264    0.0000 O   0  0  0  0  0  0  0  0  0  0  0  0
   14.6482  -13.7915    0.0000 O   0  0  0  0  0  0  0  0  0  0  0  0
   17.2171   -9.5635    0.0000 O   0  0  0  0  0  0  0  0  0  0  0  0
   17.5639  -11.7213    0.0000 C   0  0  2  0  0  0  0  0  0  0  0  0
   18.3884  -11.7492    0.0000 C   0  0  2  0  0  0  0  0  0  0  0  0
   18.8249  -11.0491    0.0000 C   0  0  1  0  0  0  0  0  0  0  0  0
   18.4369  -10.3211    0.0000 C   0  0  2  0  0  0  0  0  0  0  0  0
   17.6123  -10.2931    0.0000 C   0  0  1  0  0  0  0  0  0  0  0  0
   17.1758  -10.9932    0.0000 O   0  0  0  0  0  0  0  0  0  0  0  0
   19.6494  -11.0771    0.0000 O   0  0  0  0  0  0  0  0  0  0  0  0
   17.1274  -12.4213    0.0000 C   0  0  0  0  0  0  0  0  0  0  0  0
   18.7765  -12.4773    0.0000 O   0  0  0  0  0  0  0  0  0  0  0  0
   18.8733   -9.6210    0.0000 O   0  0  0  0  0  0  0  0  0  0  0  0
   17.5155  -13.1494    0.0000 O   0  0  0  0  0  0  0  0  0  0  0  0
   15.8117  -14.4951    0.0000 C   0  0  2  0  0  0  0  0  0  0  0  0
   16.1925  -15.2269    0.0000 C   0  0  2  0  0  0  0  0  0  0  0  0
   17.0167  -15.2630    0.0000 C   0  0  1  0  0  0  0  0  0  0  0  0
   17.4601  -14.5673    0.0000 C   0  0  2  0  0  0  0  0  0  0  0  0
   17.0793  -13.8354    0.0000 C   0  0  1  0  0  0  0  0  0  0  0  0
   16.2551  -13.7993    0.0000 O   0  0  0  0  0  0  0  0  0  0  0  0
   17.3976  -15.9948    0.0000 O   0  0  0  0  0  0  0  0  0  0  0  0
   14.9875  -14.4590    0.0000 C   0  0  0  0  0  0  0  0  0  0  0  0
   15.7492  -15.9226    0.0000 O   0  0  0  0  0  0  0  0  0  0  0  0
   18.2843  -14.6034    0.0000 O   0  0  0  0  0  0  0  0  0  0  0  0
   14.9250  -15.8863    0.0000 C   0  0  2  0  0  0  0  0  0  0  0  0
   14.5443  -15.1544    0.0000 O   0  0  0  0  0  0  0  0  0  0  0  0
   13.7201  -15.1181    0.0000 C   0  0  2  0  0  0  0  0  0  0  0  0
   13.2766  -15.8138    0.0000 C   0  0  1  0  0  0  0  0  0  0  0  0
   13.6572  -16.5457    0.0000 C   0  0  2  0  0  0  0  0  0  0  0  0
   14.4814  -16.5820    0.0000 C   0  0  1  0  0  0  0  0  0  0  0  0
   12.4523  -15.7775    0.0000 O   0  0  0  0  0  0  0  0  0  0  0  0
   13.3394  -14.3862    0.0000 C   0  0  0  0  0  0  0  0  0  0  0  0
   13.2137  -17.2413    0.0000 O   0  0  0  0  0  0  0  0  0  0  0  0
   14.8621  -17.3139    0.0000 O   0  0  0  0  0  0  0  0  0  0  0  0
   10.0721  -10.3839    0.0000 C   0  0  2  0  0  0  0  0  0  0  0  0
   10.0730   -9.5589    0.0000 O   0  0  0  0  0  0  0  0  0  0  0  0
    9.3590   -9.1457    0.0000 C   0  0  0  0  0  0  0  0  0  0  0  0
    8.6441   -9.5574    0.0000 C   0  0  1  0  0  0  0  0  0  0  0  0
    8.6432  -10.3824    0.0000 C   0  0  1  0  0  0  0  0  0  0  0  0
    9.3572  -10.7957    0.0000 C   0  0  1  0  0  0  0  0  0  0  0  0
    7.9300   -9.1442    0.0000 O   0  0  0  0  0  0  0  0  0  0  0  0
    7.9283  -10.7942    0.0000 O   0  0  0  0  0  0  0  0  0  0  0  0
    9.3563  -11.6207    0.0000 O   0  0  0  0  0  0  0  0  0  0  0  0
   15.7891   -8.7376    0.0000 H   0  0  0  0  0  0  0  0  0  0  0  0
   12.9298  -11.2109    0.0000 H   0  0  0  0  0  0  0  0  0  0  0  0
   13.6450   -9.9739    0.0000 H   0  0  0  0  0  0  0  0  0  0  0  0
    8.6414  -12.0324    0.0000 C   0  0  2  0  0  0  0  0  0  0  0  0
    7.9278  -11.6184    0.0000 O   0  0  0  0  0  0  0  0  0  0  0  0
    7.2125  -12.0324    0.0000 C   0  0  2  0  0  0  0  0  0  0  0  0
    7.2125  -12.8574    0.0000 C   0  0  1  0  0  0  0  0  0  0  0  0
    7.9278  -13.2714    0.0000 C   0  0  2  0  0  0  0  0  0  0  0  0
    8.6414  -12.8574    0.0000 C   0  0  1  0  0  0  0  0  0  0  0  0
    6.4978  -13.2695    0.0000 O   0  0  0  0  0  0  0  0  0  0  0  0
    6.4978  -11.6203    0.0000 C   0  0  0  0  0  0  0  0  0  0  0  0
    7.9283  -14.0964    0.0000 O   0  0  0  0  0  0  0  0  0  0  0  0
    9.3563  -13.2692    0.0000 O   0  0  0  0  0  0  0  0  0  0  0  0
    7.9309   -8.3192    0.0000 C   0  0  2  0  0  0  0  0  0  0  0  0
    8.6452   -7.9063    0.0000 O   0  0  0  0  0  0  0  0  0  0  0  0
    8.6452   -7.0813    0.0000 C   0  0  1  0  0  0  0  0  0  0  0  0
    7.9309   -6.6692    0.0000 C   0  0  2  0  0  0  0  0  0  0  0  0
    7.2167   -7.0813    0.0000 C   0  0  1  0  0  0  0  0  0  0  0  0
    7.2167   -7.9063    0.0000 C   0  0  1  0  0  0  0  0  0  0  0  0
    9.3596   -6.6687    0.0000 C   0  0  0  0  0  0  0  0  0  0  0  0
    6.5022   -6.6687    0.0000 O   0  0  0  0  0  0  0  0  0  0  0  0
    7.9309   -5.8442    0.0000 O   0  0  0  0  0  0  0  0  0  0  0  0
    6.5021   -8.3186    0.0000 O   0  0  0  0  0  0  0  0  0  0  0  0
    9.3595   -5.8437    0.0000 O   0  0  0  0  0  0  0  0  0  0  0  0
  1  2  1  0  0  0  0
  2  3  1  0  0  0  0
  3  4  1  0  0  0  0
  4  5  1  0  0  0  0
  5  6  1  0  0  0  0
  6  1  1  0  0  0  0
  4  7  1  0  0  0  0
  7  8  1  0  0  0  0
  8  9  1  0  0  0  0
  9 10  1  0  0  0  0
 10  5  1  0  0  0  0
  9 11  1  0  0  0  0
 11 12  1  0  0  0  0
 12 13  2  0  0  0  0
 13 14  1  0  0  0  0
 14 10  1  0  0  0  0
 11 15  1  0  0  0  0
 15 16  1  0  0  0  0
 16 17  1  0  0  0  0
 17 18  1  0  0  0  0
 18 12  1  0  0  0  0
 17 19  1  0  0  0  0
 19 20  1  0  0  0  0
 20 21  1  0  0  0  0
 21 22  1  0  0  0  0
 22 18  1  0  0  0  0
  5 23  1  1  0  0  0
  9 24  1  1  0  0  0
 21 25  1  0  0  0  0
 17 26  1  1  0  0  0
  3 27  1  0  0  0  0
  2 28  1  1  0  0  0
  3 29  1  0  0  0  0
 11 30  1  6  0  0  0
 21 31  1  0  0  0  0
 26 32  2  0  0  0  0
 53 33  1  0  0  0  0
 26 34  1  0  0  0  0
 35 36  1  0  0  0  0
 36 37  1  0  0  0  0
 37 38  1  0  0  0  0
 38 39  1  0  0  0  0
 39 40  1  0  0  0  0
 40 35  1  0  0  0  0
 37 41  1  1  0  0  0
 35 42  1  1  0  0  0
 36 43  1  6  0  0  0
 38 44  1  6  0  0  0
 42 45  1  0  0  0  0
 46 47  1  0  0  0  0
 47 48  1  0  0  0  0
 48 49  1  0  0  0  0
 49 50  1  0  0  0  0
 50 51  1  0  0  0  0
 51 46  1  0  0  0  0
 48 52  1  1  0  0  0
 46 53  1  1  0  0  0
 47 54  1  6  0  0  0
 49 55  1  6  0  0  0
 50 45  1  1  0  0  0
 56 54  1  1  0  0  0
 56 57  1  0  0  0  0
 57 58  1  0  0  0  0
 58 59  1  0  0  0  0
 59 60  1  0  0  0  0
 60 61  1  0  0  0  0
 61 56  1  0  0  0  0
 59 62  1  1  0  0  0
 58 63  1  6  0  0  0
 60 64  1  6  0  0  0
 66 28  1  1  0  0  0
 66 67  1  0  0  0  0
 67 68  1  0  0  0  0
 68 69  1  0  0  0  0
 69 70  1  0  0  0  0
 70 71  1  0  0  0  0
 71 66  1  0  0  0  0
 69 72  1  1  0  0  0
 70 73  1  1  0  0  0
 71 74  1  6  0  0  0
 61 65  1  6  0  0  0
 39 34  1  1  0  0  0
 18 75  1  1  0  0  0
  4 76  1  6  0  0  0
 10 77  1  6  0  0  0
 78 74  1  1  0  0  0
 78 79  1  0  0  0  0
 79 80  1  0  0  0  0
 80 81  1  0  0  0  0
 81 82  1  0  0  0  0
 82 83  1  0  0  0  0
 83 78  1  0  0  0  0
 81 84  1  1  0  0  0
 80 85  1  6  0  0  0
 82 86  1  6  0  0  0
 83 87  1  6  0  0  0
 88 72  1  1  0  0  0
 88 89  1  0  0  0  0
 89 90  1  0  0  0  0
 90 91  1  0  0  0  0
 91 92  1  0  0  0  0
 92 93  1  0  0  0  0
 93 88  1  0  0  0  0
 90 94  1  1  0  0  0
 92 95  1  1  0  0  0
 91 96  1  6  0  0  0
 93 97  1  6  0  0  0
 94 98  1  0  0  0  0
M  END
>  <cdx:fragmentId>
340

$$$$
