98236.cdx
  Mrv1902 05222410222D          

 41 44  0  0  0  0            999 V2000
    4.9412   -8.3050    0.0000 O   0  0  0  0  0  0  0  0  0  0  0  0
    4.9412   -9.1300    0.0000 C   0  0  0  0  0  0  0  0  0  0  0  0
    5.6556   -9.5425    0.0000 C   0  0  0  0  0  0  0  0  0  0  0  0
    6.3701   -9.1300    0.0000 C   0  0  0  0  0  0  0  0  0  0  0  0
    6.3701   -8.3050    0.0000 C   0  0  0  0  0  0  0  0  0  0  0  0
    5.6556   -7.8925    0.0000 C   0  0  2  0  0  0  0  0  0  0  0  0
    7.1547   -9.3849    0.0000 C   0  0  1  0  0  0  0  0  0  0  0  0
    7.6397   -8.7175    0.0000 C   0  0  0  0  0  0  0  0  0  0  0  0
    7.1547   -8.0501    0.0000 C   0  0  0  0  0  0  0  0  0  0  0  0
    7.4097   -7.2654    0.0000 C   0  0  0  0  0  0  0  0  0  0  0  0
    5.6556  -10.3675    0.0000 C   0  0  0  0  0  0  0  0  0  0  0  0
    5.6556   -7.0675    0.0000 O   0  0  0  0  0  0  0  0  0  0  0  0
    7.4097  -10.1696    0.0000 O   0  0  0  0  0  0  0  0  0  0  0  0
    6.3701  -10.7800    0.0000 O   0  0  0  0  0  0  0  0  0  0  0  0
    4.9412  -10.7800    0.0000 O   0  0  0  0  0  0  0  0  0  0  0  0
    6.8576   -6.6523    0.0000 O   0  0  0  0  0  0  0  0  0  0  0  0
    8.2066  -10.3831    0.0000 C   0  0  0  0  0  0  0  0  0  0  0  0
    8.4201  -11.1800    0.0000 C   0  0  0  0  0  0  0  0  0  0  0  0
    8.7899   -9.7997    0.0000 O   0  0  0  0  0  0  0  0  0  0  0  0
    9.2170  -11.3935    0.0000 C   0  0  0  0  0  0  0  0  0  0  0  0
    9.7585  -10.7711    0.0000 C   0  0  0  0  0  0  0  0  0  0  0  0
   10.5683  -10.9288    0.0000 C   0  0  0  0  0  0  0  0  0  0  0  0
   11.1097  -10.3064    0.0000 C   0  0  0  0  0  0  0  0  0  0  0  0
   10.8414   -9.5262    0.0000 C   0  0  0  0  0  0  0  0  0  0  0  0
   10.0317   -9.3685    0.0000 C   0  0  0  0  0  0  0  0  0  0  0  0
    9.4902   -9.9909    0.0000 C   0  0  0  0  0  0  0  0  0  0  0  0
   11.3829   -8.9038    0.0000 O   0  0  0  0  0  0  0  0  0  0  0  0
   11.9195  -10.4641    0.0000 C   0  0  0  0  0  0  0  0  0  0  0  0
   12.4610   -9.8417    0.0000 O   0  0  0  0  0  0  0  0  0  0  0  0
    4.9412   -6.6550    0.0000 C   0  0  2  0  0  0  0  0  0  0  0  0
    4.9412   -5.8300    0.0000 O   0  0  0  0  0  0  0  0  0  0  0  0
    4.2267   -5.4175    0.0000 C   0  0  1  0  0  0  0  0  0  0  0  0
    3.5122   -5.8300    0.0000 C   0  0  2  0  0  0  0  0  0  0  0  0
    3.5122   -6.6550    0.0000 C   0  0  1  0  0  0  0  0  0  0  0  0
    4.2267   -7.0675    0.0000 C   0  0  1  0  0  0  0  0  0  0  0  0
    4.2267   -4.5925    0.0000 C   0  0  0  0  0  0  0  0  0  0  0  0
    2.7978   -7.0675    0.0000 O   0  0  0  0  0  0  0  0  0  0  0  0
    2.7978   -5.4175    0.0000 O   0  0  0  0  0  0  0  0  0  0  0  0
    4.2267   -7.8925    0.0000 O   0  0  0  0  0  0  0  0  0  0  0  0
    3.5122   -4.1800    0.0000 O   0  0  0  0  0  0  0  0  0  0  0  0
    6.3701  -11.6050    0.0000 C   0  0  0  0  0  0  0  0  0  0  0  0
  1  2  1  0  0  0  0
  2  3  2  0  0  0  0
  3  4  1  0  0  0  0
  4  5  1  0  0  0  0
  5  6  1  0  0  0  0
  6  1  1  0  0  0  0
  4  7  1  0  0  0  0
  7  8  1  0  0  0  0
  8  9  2  0  0  0  0
  9  5  1  0  0  0  0
  9 10  1  0  0  0  0
  3 11  1  0  0  0  0
  6 12  1  1  0  0  0
  7 13  1  1  0  0  0
 11 14  1  0  0  0  0
 11 15  2  0  0  0  0
 10 16  1  0  0  0  0
 13 17  1  0  0  0  0
 17 18  1  0  0  0  0
 17 19  2  0  0  0  0
 18 20  2  0  0  0  0
 20 21  1  0  0  0  0
 21 22  2  0  0  0  0
 22 23  1  0  0  0  0
 23 24  2  0  0  0  0
 24 25  1  0  0  0  0
 25 26  2  0  0  0  0
 26 21  1  0  0  0  0
 24 27  1  0  0  0  0
 23 28  1  0  0  0  0
 28 29  1  0  0  0  0
 30 12  1  1  0  0  0
 30 31  1  0  0  0  0
 31 32  1  0  0  0  0
 32 33  1  0  0  0  0
 33 34  1  0  0  0  0
 34 35  1  0  0  0  0
 35 30  1  0  0  0  0
 32 36  1  1  0  0  0
 34 37  1  1  0  0  0
 33 38  1  6  0  0  0
 35 39  1  6  0  0  0
 36 40  1  0  0  0  0
 14 41  1  0  0  0  0
M  END
>  <cdx:fragmentId>
5

$$$$
