98235.cdx
  Mrv1902 05222410232D          

 70 76  0  0  0  0            999 V2000
    5.6760  -12.1787    0.0000 O   0  0  0  0  0  0  0  0  0  0  0  0
    4.8513  -12.1699    0.0000 C   0  0  2  0  0  0  0  0  0  0  0  0
    4.4313  -12.8797    0.0000 C   0  0  2  0  0  0  0  0  0  0  0  0
    4.8360  -13.5983    0.0000 O   0  0  0  0  0  0  0  0  0  0  0  0
    4.4466  -11.4513    0.0000 O   0  0  0  0  0  0  0  0  0  0  0  0
    4.8666  -10.7415    0.0000 C   0  0  0  0  0  0  0  0  0  0  0  0
    4.4619  -10.0229    0.0000 C   0  0  0  0  0  0  0  0  0  0  0  0
    4.8819   -9.3131    0.0000 O   0  0  0  0  0  0  0  0  0  0  0  0
    3.6372  -10.0140    0.0000 O   0  0  0  0  0  0  0  0  0  0  0  0
    3.6066  -12.8709    0.0000 C   0  0  0  0  0  0  0  0  0  0  0  0
    3.2019  -12.1522    0.0000 O   0  0  0  0  0  0  0  0  0  0  0  0
   10.0848  -10.4788    0.0000 C   0  0  0  0  0  0  0  0  0  0  0  0
    9.3705  -10.8912    0.0000 C   0  0  0  0  0  0  0  0  0  0  0  0
    9.3705  -11.7160    0.0000 C   0  0  1  0  0  0  0  0  0  0  0  0
   10.0848  -12.1283    0.0000 C   0  0  2  0  0  0  0  0  0  0  0  0
   10.7990  -11.7160    0.0000 C   0  0  2  0  0  0  0  0  0  0  0  0
   11.5133  -12.1283    0.0000 C   0  0  0  0  0  0  0  0  0  0  0  0
   12.2275  -11.7160    0.0000 C   0  0  0  0  0  0  0  0  0  0  0  0
   12.2275  -10.8912    0.0000 C   0  0  1  0  0  0  0  0  0  0  0  0
   12.9417  -10.4788    0.0000 C   0  0  2  0  0  0  0  0  0  0  0  0
   13.6560  -10.8912    0.0000 C   0  0  0  0  0  0  0  0  0  0  0  0
   14.3702  -10.4788    0.0000 C   0  0  0  0  0  0  0  0  0  0  0  0
   14.3702   -9.6541    0.0000 C   0  0  1  0  0  0  0  0  0  0  0  0
   15.0845   -9.2417    0.0000 C   0  0  0  0  0  0  0  0  0  0  0  0
   15.0845   -8.4170    0.0000 C   0  0  0  0  0  0  0  0  0  0  0  0
   14.3702   -8.0046    0.0000 C   0  0  1  0  0  0  0  0  0  0  0  0
   13.6560   -8.4170    0.0000 C   0  0  0  0  0  0  0  0  0  0  0  0
   13.6560   -9.2417    0.0000 C   0  0  1  0  0  0  0  0  0  0  0  0
   12.9417   -9.6541    0.0000 C   0  0  0  0  0  0  0  0  0  0  0  0
   12.2275   -9.2417    0.0000 C   0  0  0  0  0  0  0  0  0  0  0  0
   11.5133   -9.6541    0.0000 C   0  0  0  0  0  0  0  0  0  0  0  0
   11.5133  -10.4788    0.0000 C   0  0  2  0  0  0  0  0  0  0  0  0
   10.7990  -10.8912    0.0000 C   0  0  1  0  0  0  0  0  0  0  0  0
   15.0845  -10.0665    0.0000 C   0  0  0  0  0  0  0  0  0  0  0  0
   15.0845  -10.8912    0.0000 O   0  0  0  0  0  0  0  0  0  0  0  0
   10.7990  -10.0665    0.0000 C   0  0  0  0  0  0  0  0  0  0  0  0
   13.9579   -7.2904    0.0000 C   0  0  0  0  0  0  0  0  0  0  0  0
   14.7826   -7.2904    0.0000 C   0  0  0  0  0  0  0  0  0  0  0  0
   12.9417  -11.3036    0.0000 C   0  0  0  0  0  0  0  0  0  0  0  0
   12.2275  -10.0665    0.0000 C   0  0  0  0  0  0  0  0  0  0  0  0
   10.4971  -12.8426    0.0000 C   0  0  0  0  0  0  0  0  0  0  0  0
    9.6724  -12.8426    0.0000 C   0  0  0  0  0  0  0  0  0  0  0  0
    8.6563  -12.1283    0.0000 O   0  0  0  0  0  0  0  0  0  0  0  0
    3.1866  -13.5807    0.0000 O   0  0  0  0  0  0  0  0  0  0  0  0
    5.8217  -10.4406    0.0000 O   0  0  0  0  0  0  0  0  0  0  0  0
    7.2168  -12.9338    0.0000 O   0  0  0  0  0  0  0  0  0  0  0  0
    6.5526   -9.2132    0.0000 O   0  0  0  0  0  0  0  0  0  0  0  0
    7.9809   -9.2324    0.0000 O   0  0  0  0  0  0  0  0  0  0  0  0
    7.2612   -9.6351    0.0000 C   0  0  0  0  0  0  0  0  0  0  0  0
    7.9476  -11.7064    0.0000 C   0  0  1  0  0  0  0  0  0  0  0  0
    7.2279  -12.1091    0.0000 C   0  0  1  0  0  0  0  0  0  0  0  0
    6.5193  -11.6872    0.0000 C   0  0  2  0  0  0  0  0  0  0  0  0
    6.5304  -10.8625    0.0000 C   0  0  1  0  0  0  0  0  0  0  0  0
    7.2501  -10.4598    0.0000 C   0  0  2  0  0  0  0  0  0  0  0  0
   17.2199   -8.8168    0.0000 O   0  0  0  0  0  0  0  0  0  0  0  0
   18.6556   -9.6288    0.0000 O   0  0  0  0  0  0  0  0  0  0  0  0
   18.6702  -11.2782    0.0000 O   0  0  0  0  0  0  0  0  0  0  0  0
   17.9669  -12.5216    0.0000 O   0  0  0  0  0  0  0  0  0  0  0  0
   17.2491  -12.1156    0.0000 C   0  0  0  0  0  0  0  0  0  0  0  0
   17.2418  -11.2909    0.0000 C   0  0  2  0  0  0  0  0  0  0  0  0
   17.9523  -10.8722    0.0000 C   0  0  2  0  0  0  0  0  0  0  0  0
   17.9450  -10.0475    0.0000 C   0  0  1  0  0  0  0  0  0  0  0  0
   17.2272   -9.6415    0.0000 C   0  0  2  0  0  0  0  0  0  0  0  0
   16.5166  -10.0601    0.0000 C   0  0  1  0  0  0  0  0  0  0  0  0
   16.5239  -10.8848    0.0000 O   0  0  0  0  0  0  0  0  0  0  0  0
   15.7987   -9.6541    0.0000 O   0  0  0  0  0  0  0  0  0  0  0  0
    7.9587  -10.8817    0.0000 O   0  0  0  0  0  0  0  0  0  0  0  0
   10.7990  -12.5407    0.0000 H   0  0  0  0  0  0  0  0  0  0  0  0
   11.5133  -11.3036    0.0000 H   0  0  0  0  0  0  0  0  0  0  0  0
   13.6560  -10.0665    0.0000 H   0  0  0  0  0  0  0  0  0  0  0  0
 50 43  1  1  0  0  0
 52  1  1  1  0  0  0
 53 45  1  6  0  0  0
 51 46  1  6  0  0  0
 54 49  1  1  0  0  0
 49 47  1  0  0  0  0
 49 48  2  0  0  0  0
 67 50  1  0  0  0  0
 51 50  1  0  0  0  0
 52 51  1  0  0  0  0
 53 52  1  0  0  0  0
 54 53  1  0  0  0  0
 67 54  1  0  0  0  0
 64 66  1  1  0  0  0
 63 55  1  6  0  0  0
 62 56  1  1  0  0  0
 61 57  1  6  0  0  0
 60 59  1  1  0  0  0
 59 58  1  0  0  0  0
 65 60  1  0  0  0  0
 61 60  1  0  0  0  0
 62 61  1  0  0  0  0
 63 62  1  0  0  0  0
 64 63  1  0  0  0  0
 65 64  1  0  0  0  0
  2  3  1  0  0  0  0
  2  1  1  6  0  0  0
  3  4  1  6  0  0  0
  5  6  1  0  0  0  0
  7  8  2  0  0  0  0
  7  9  1  0  0  0  0
  6  7  1  0  0  0  0
  2  5  1  0  0  0  0
 10 11  2  0  0  0  0
 10 44  1  0  0  0  0
  3 10  1  0  0  0  0
 12 13  1  0  0  0  0
 13 14  1  0  0  0  0
 14 15  1  0  0  0  0
 15 16  1  0  0  0  0
 16 17  1  0  0  0  0
 17 18  1  0  0  0  0
 18 19  1  0  0  0  0
 19 20  1  0  0  0  0
 20 21  1  0  0  0  0
 21 22  1  0  0  0  0
 22 23  1  0  0  0  0
 23 24  1  0  0  0  0
 24 25  1  0  0  0  0
 25 26  1  0  0  0  0
 26 27  1  0  0  0  0
 27 28  1  0  0  0  0
 23 28  1  0  0  0  0
 28 29  1  0  0  0  0
 20 29  1  0  0  0  0
 29 30  2  0  0  0  0
 30 31  1  0  0  0  0
 31 32  1  0  0  0  0
 19 32  1  0  0  0  0
 32 33  1  0  0  0  0
 16 33  1  0  0  0  0
 12 33  1  0  0  0  0
 34 35  2  0  0  0  0
 34 66  1  0  0  0  0
 23 34  1  1  0  0  0
 33 36  1  1  0  0  0
 26 37  1  1  0  0  0
 26 38  1  6  0  0  0
 20 39  1  6  0  0  0
 19 40  1  1  0  0  0
 15 41  1  6  0  0  0
 15 42  1  1  0  0  0
 14 43  1  1  0  0  0
 16 68  1  6  0  0  0
 32 69  1  6  0  0  0
 28 70  1  1  0  0  0
M  END
>  <cdx:fragmentId>
53

$$$$
