98237.cdx
  Mrv1902 05222410222D          

 38 41  0  0  0  0            999 V2000
    5.1612   -6.6550    0.0000 O   0  0  0  0  0  0  0  0  0  0  0  0
    5.1612   -7.4800    0.0000 C   0  0  0  0  0  0  0  0  0  0  0  0
    5.8756   -7.8925    0.0000 C   0  0  0  0  0  0  0  0  0  0  0  0
    6.5901   -7.4800    0.0000 C   0  0  0  0  0  0  0  0  0  0  0  0
    6.5901   -6.6550    0.0000 C   0  0  0  0  0  0  0  0  0  0  0  0
    5.8756   -6.2425    0.0000 C   0  0  2  0  0  0  0  0  0  0  0  0
    7.3747   -7.7349    0.0000 C   0  0  1  0  0  0  0  0  0  0  0  0
    7.8597   -7.0675    0.0000 C   0  0  0  0  0  0  0  0  0  0  0  0
    7.3747   -6.4001    0.0000 C   0  0  0  0  0  0  0  0  0  0  0  0
    7.6297   -5.6154    0.0000 C   0  0  0  0  0  0  0  0  0  0  0  0
    5.8756   -8.7175    0.0000 C   0  0  0  0  0  0  0  0  0  0  0  0
    5.8756   -5.4175    0.0000 O   0  0  0  0  0  0  0  0  0  0  0  0
    7.6297   -8.5196    0.0000 O   0  0  0  0  0  0  0  0  0  0  0  0
    6.5901   -9.1300    0.0000 O   0  0  0  0  0  0  0  0  0  0  0  0
    5.1612   -9.1300    0.0000 O   0  0  0  0  0  0  0  0  0  0  0  0
    7.0776   -5.0023    0.0000 O   0  0  0  0  0  0  0  0  0  0  0  0
    8.4266   -8.7331    0.0000 C   0  0  0  0  0  0  0  0  0  0  0  0
    8.6401   -9.5300    0.0000 C   0  0  0  0  0  0  0  0  0  0  0  0
    9.0099   -8.1497    0.0000 O   0  0  0  0  0  0  0  0  0  0  0  0
    9.4370   -9.7435    0.0000 C   0  0  0  0  0  0  0  0  0  0  0  0
    9.6505  -10.5404    0.0000 C   0  0  0  0  0  0  0  0  0  0  0  0
    9.0671  -11.1238    0.0000 C   0  0  0  0  0  0  0  0  0  0  0  0
    9.2807  -11.9206    0.0000 C   0  0  0  0  0  0  0  0  0  0  0  0
   10.0776  -12.1342    0.0000 C   0  0  0  0  0  0  0  0  0  0  0  0
   10.6609  -11.5508    0.0000 C   0  0  0  0  0  0  0  0  0  0  0  0
   10.4474  -10.7539    0.0000 C   0  0  0  0  0  0  0  0  0  0  0  0
   10.2911  -12.9311    0.0000 O   0  0  0  0  0  0  0  0  0  0  0  0
    5.1612   -5.0050    0.0000 C   0  0  2  0  0  0  0  0  0  0  0  0
    5.1612   -4.1800    0.0000 O   0  0  0  0  0  0  0  0  0  0  0  0
    4.4467   -3.7675    0.0000 C   0  0  1  0  0  0  0  0  0  0  0  0
    3.7322   -4.1800    0.0000 C   0  0  2  0  0  0  0  0  0  0  0  0
    3.7322   -5.0050    0.0000 C   0  0  1  0  0  0  0  0  0  0  0  0
    4.4467   -5.4175    0.0000 C   0  0  1  0  0  0  0  0  0  0  0  0
    4.4467   -2.9425    0.0000 C   0  0  0  0  0  0  0  0  0  0  0  0
    3.0178   -5.4175    0.0000 O   0  0  0  0  0  0  0  0  0  0  0  0
    3.0178   -3.7675    0.0000 O   0  0  0  0  0  0  0  0  0  0  0  0
    4.4467   -6.2425    0.0000 O   0  0  0  0  0  0  0  0  0  0  0  0
    3.7322   -2.5300    0.0000 O   0  0  0  0  0  0  0  0  0  0  0  0
  1  2  1  0  0  0  0
  2  3  2  0  0  0  0
  3  4  1  0  0  0  0
  4  5  1  0  0  0  0
  5  6  1  0  0  0  0
  6  1  1  0  0  0  0
  4  7  1  0  0  0  0
  7  8  1  0  0  0  0
  8  9  2  0  0  0  0
  9  5  1  0  0  0  0
  9 10  1  0  0  0  0
  3 11  1  0  0  0  0
  6 12  1  1  0  0  0
  7 13  1  1  0  0  0
 11 14  1  0  0  0  0
 11 15  2  0  0  0  0
 10 16  1  0  0  0  0
 13 17  1  0  0  0  0
 17 18  1  0  0  0  0
 17 19  2  0  0  0  0
 18 20  2  0  0  0  0
 20 21  1  0  0  0  0
 21 22  2  0  0  0  0
 22 23  1  0  0  0  0
 23 24  2  0  0  0  0
 24 25  1  0  0  0  0
 25 26  2  0  0  0  0
 26 21  1  0  0  0  0
 24 27  1  0  0  0  0
 28 12  1  1  0  0  0
 28 29  1  0  0  0  0
 29 30  1  0  0  0  0
 30 31  1  0  0  0  0
 31 32  1  0  0  0  0
 32 33  1  0  0  0  0
 33 28  1  0  0  0  0
 30 34  1  1  0  0  0
 32 35  1  1  0  0  0
 31 36  1  6  0  0  0
 33 37  1  6  0  0  0
 34 38  1  0  0  0  0
M  END
>  <cdx:fragmentId>
5

$$$$
