98244.cdx
  Mrv1902 05222410192D          

 58 65  0  0  0  0            999 V2000
   11.5274   -9.3225    0.0000 C   0  0  0  0  0  0  0  0  0  0  0  0
   11.5274  -10.1475    0.0000 C   0  0  1  0  0  0  0  0  0  0  0  0
   12.2419  -10.5600    0.0000 C   0  0  1  0  0  0  0  0  0  0  0  0
   12.9564  -10.1475    0.0000 C   0  0  0  0  0  0  0  0  0  0  0  0
   12.9564   -9.3225    0.0000 C   0  0  2  0  0  0  0  0  0  0  0  0
   12.2419   -8.9100    0.0000 C   0  0  0  0  0  0  0  0  0  0  0  0
   13.6708  -10.5600    0.0000 C   0  0  0  0  0  0  0  0  0  0  0  0
   14.3853  -10.1475    0.0000 C   0  0  0  0  0  0  0  0  0  0  0  0
   14.3853   -9.3225    0.0000 C   0  0  2  0  0  0  0  0  0  0  0  0
   13.6708   -8.9100    0.0000 C   0  0  0  0  0  0  0  0  0  0  0  0
   15.0998   -8.9100    0.0000 C   0  0  1  0  0  0  0  0  0  0  0  0
   15.0998   -8.0850    0.0000 C   0  0  0  0  0  0  0  0  0  0  0  0
   14.3853   -7.6725    0.0000 C   0  0  0  0  0  0  0  0  0  0  0  0
   13.6708   -8.0850    0.0000 C   0  0  0  0  0  0  0  0  0  0  0  0
   15.8143   -9.3225    0.0000 C   0  0  0  0  0  0  0  0  0  0  0  0
   16.5287   -8.9100    0.0000 C   0  0  2  0  0  0  0  0  0  0  0  0
   16.5287   -8.0850    0.0000 C   0  0  2  0  0  0  0  0  0  0  0  0
   15.8143   -7.6725    0.0000 C   0  0  0  0  0  0  0  0  0  0  0  0
   17.2432   -7.6725    0.0000 C   0  0  0  0  0  0  0  0  0  0  0  0
   17.2432   -6.8475    0.0000 C   0  0  1  0  0  0  0  0  0  0  0  0
   16.5287   -6.4350    0.0000 C   0  0  1  0  0  0  0  0  0  0  0  0
   15.8143   -6.8475    0.0000 C   0  0  0  0  0  0  0  0  0  0  0  0
   17.2432   -8.4975    0.0000 C   0  0  0  0  0  0  0  0  0  0  0  0
   17.9577   -7.2600    0.0000 O   0  0  0  0  0  0  0  0  0  0  0  0
   17.9577   -8.9100    0.0000 O   0  0  0  0  0  0  0  0  0  0  0  0
   10.8130  -10.5600    0.0000 O   0  0  0  0  0  0  0  0  0  0  0  0
   16.1162   -5.7205    0.0000 C   0  0  0  0  0  0  0  0  0  0  0  0
   14.3853   -8.4975    0.0000 C   0  0  0  0  0  0  0  0  0  0  0  0
   12.9564   -8.4975    0.0000 C   0  0  0  0  0  0  0  0  0  0  0  0
   11.8294  -11.2745    0.0000 C   0  0  0  0  0  0  0  0  0  0  0  0
   12.6544  -11.2745    0.0000 C   0  0  0  0  0  0  0  0  0  0  0  0
   15.0998   -9.7350    0.0000 C   0  0  0  0  0  0  0  0  0  0  0  0
   17.2432   -9.3225    0.0000 O   0  0  0  0  0  0  0  0  0  0  0  0
   16.9412   -5.7205    0.0000 C   0  0  0  0  0  0  0  0  0  0  0  0
   10.0985  -10.1475    0.0000 C   0  0  2  0  0  0  0  0  0  0  0  0
   10.0985   -9.3225    0.0000 O   0  0  0  0  0  0  0  0  0  0  0  0
    9.3840   -8.9100    0.0000 C   0  0  1  0  0  0  0  0  0  0  0  0
    8.6695   -9.3225    0.0000 C   0  0  2  0  0  0  0  0  0  0  0  0
    8.6695  -10.1475    0.0000 C   0  0  1  0  0  0  0  0  0  0  0  0
    9.3840  -10.5600    0.0000 C   0  0  1  0  0  0  0  0  0  0  0  0
    9.3840   -8.0850    0.0000 C   0  0  0  0  0  0  0  0  0  0  0  0
    7.9551  -10.5600    0.0000 O   0  0  0  0  0  0  0  0  0  0  0  0
    8.6695   -7.6725    0.0000 O   0  0  0  0  0  0  0  0  0  0  0  0
    8.6695   -6.8475    0.0000 C   0  0  2  0  0  0  0  0  0  0  0  0
    9.3840   -6.4350    0.0000 O   0  0  0  0  0  0  0  0  0  0  0  0
    9.3840   -5.6100    0.0000 C   0  0  1  0  0  0  0  0  0  0  0  0
    8.6695   -5.1975    0.0000 C   0  0  1  0  0  0  0  0  0  0  0  0
    7.9551   -5.6100    0.0000 C   0  0  1  0  0  0  0  0  0  0  0  0
    7.9551   -6.4350    0.0000 C   0  0  1  0  0  0  0  0  0  0  0  0
    7.2406   -5.1975    0.0000 O   0  0  0  0  0  0  0  0  0  0  0  0
    8.6695   -4.3725    0.0000 O   0  0  0  0  0  0  0  0  0  0  0  0
   10.0985   -5.1975    0.0000 C   0  0  0  0  0  0  0  0  0  0  0  0
    7.2406   -6.8475    0.0000 O   0  0  0  0  0  0  0  0  0  0  0  0
    7.9551   -8.9100    0.0000 O   0  0  0  0  0  0  0  0  0  0  0  0
    9.3840  -11.3850    0.0000 N   0  0  0  0  0  0  0  0  0  0  0  0
    8.6695  -11.7975    0.0000 C   0  0  0  0  0  0  0  0  0  0  0  0
    8.6695  -12.6225    0.0000 C   0  0  0  0  0  0  0  0  0  0  0  0
    7.9551  -11.3850    0.0000 O   0  0  0  0  0  0  0  0  0  0  0  0
  1  2  1  0  0  0  0
  2  3  1  0  0  0  0
  3  4  1  0  0  0  0
  4  5  1  0  0  0  0
  5  6  1  0  0  0  0
  6  1  1  0  0  0  0
  4  7  1  0  0  0  0
  7  8  1  0  0  0  0
  8  9  1  0  0  0  0
  9 10  1  0  0  0  0
 10  5  1  0  0  0  0
  9 11  1  0  0  0  0
 11 12  1  0  0  0  0
 12 13  2  0  0  0  0
 13 14  1  0  0  0  0
 14 10  1  0  0  0  0
 11 15  1  0  0  0  0
 15 16  1  0  0  0  0
 16 17  1  0  0  0  0
 17 18  1  0  0  0  0
 18 12  1  0  0  0  0
 17 19  1  0  0  0  0
 19 20  1  0  0  0  0
 20 21  1  0  0  0  0
 21 22  1  0  0  0  0
 22 18  1  0  0  0  0
 17 23  1  1  0  0  0
 20 24  1  1  0  0  0
 23 24  1  0  0  0  0
 23 25  2  0  0  0  0
  2 26  1  1  0  0  0
 21 27  1  1  0  0  0
  9 28  1  1  0  0  0
  5 29  1  1  0  0  0
  3 30  1  1  0  0  0
  3 31  1  6  0  0  0
 11 32  1  6  0  0  0
 16 33  1  6  0  0  0
 21 34  1  6  0  0  0
 35 26  1  1  0  0  0
 35 36  1  0  0  0  0
 36 37  1  0  0  0  0
 37 38  1  0  0  0  0
 38 39  1  0  0  0  0
 39 40  1  0  0  0  0
 40 35  1  0  0  0  0
 37 41  1  1  0  0  0
 39 42  1  1  0  0  0
 41 43  1  0  0  0  0
 44 43  1  1  0  0  0
 44 45  1  0  0  0  0
 45 46  1  0  0  0  0
 46 47  1  0  0  0  0
 47 48  1  0  0  0  0
 48 49  1  0  0  0  0
 49 44  1  0  0  0  0
 48 50  1  1  0  0  0
 47 51  1  1  0  0  0
 46 52  1  1  0  0  0
 49 53  1  6  0  0  0
 38 54  1  6  0  0  0
 40 55  1  6  0  0  0
 55 56  1  0  0  0  0
 56 57  1  0  0  0  0
 56 58  2  0  0  0  0
M  END
>  <cdx:fragmentId>
167634

$$$$
