98248.cdx
  Mrv1902 05222410272D          

 43 47  0  0  0  0            999 V2000
    7.6607   -6.8010    0.0000 O   0  0  0  0  0  0  0  0  0  0  0  0
    4.8028   -7.6260    0.0000 O   0  0  0  0  0  0  0  0  0  0  0  0
    3.3739   -5.1510    0.0000 O   0  0  0  0  0  0  0  0  0  0  0  0
    9.8041   -3.9135    0.0000 O   0  0  0  0  0  0  0  0  0  0  0  0
    7.6607   -4.3260    0.0000 C   0  0  0  0  0  0  0  0  0  0  0  0
    8.3752   -3.9135    0.0000 C   0  0  0  0  0  0  0  0  0  0  0  0
    9.0896   -4.3260    0.0000 C   0  0  0  0  0  0  0  0  0  0  0  0
    9.0896   -5.1510    0.0000 C   0  0  0  0  0  0  0  0  0  0  0  0
    8.3752   -5.5635    0.0000 C   0  0  0  0  0  0  0  0  0  0  0  0
    7.6607   -5.1510    0.0000 C   0  0  0  0  0  0  0  0  0  0  0  0
    6.2318   -7.6260    0.0000 O   0  0  0  0  0  0  0  0  0  0  0  0
    6.2318   -5.1510    0.0000 O   0  0  0  0  0  0  0  0  0  0  0  0
    5.5173   -5.5635    0.0000 C   0  0  0  0  0  0  0  0  0  0  0  0
    4.8028   -5.1510    0.0000 C   0  0  0  0  0  0  0  0  0  0  0  0
    4.0884   -5.5635    0.0000 C   0  0  0  0  0  0  0  0  0  0  0  0
    4.0884   -6.3885    0.0000 C   0  0  0  0  0  0  0  0  0  0  0  0
    4.8028   -6.8010    0.0000 C   0  0  0  0  0  0  0  0  0  0  0  0
    5.5173   -6.3885    0.0000 C   0  0  0  0  0  0  0  0  0  0  0  0
    6.2318   -6.8010    0.0000 C   0  0  0  0  0  0  0  0  0  0  0  0
    6.9462   -6.3885    0.0000 C   0  0  0  0  0  0  0  0  0  0  0  0
    6.9462   -5.5635    0.0000 C   0  0  0  0  0  0  0  0  0  0  0  0
    6.9473   -8.8570    0.0000 C   0  0  2  0  0  0  0  0  0  0  0  0
    7.6605   -9.2717    0.0000 C   0  0  2  0  0  0  0  0  0  0  0  0
    8.3762   -8.8614    0.0000 C   0  0  1  0  0  0  0  0  0  0  0  0
    8.3787   -8.0364    0.0000 C   0  0  2  0  0  0  0  0  0  0  0  0
    7.6655   -7.6217    0.0000 C   0  0  1  0  0  0  0  0  0  0  0  0
    6.9498   -8.0321    0.0000 O   0  0  0  0  0  0  0  0  0  0  0  0
    6.2315   -9.2674    0.0000 C   0  0  0  0  0  0  0  0  0  0  0  0
    9.0894   -9.2760    0.0000 O   0  0  0  0  0  0  0  0  0  0  0  0
    7.6580  -10.0967    0.0000 O   0  0  0  0  0  0  0  0  0  0  0  0
    9.0944   -7.6261    0.0000 O   0  0  0  0  0  0  0  0  0  0  0  0
    6.2290  -10.0924    0.0000 O   0  0  0  0  0  0  0  0  0  0  0  0
    4.0842  -10.4917    0.0000 C   0  0  1  0  0  0  0  0  0  0  0  0
    4.0800  -11.3167    0.0000 C   0  0  1  0  0  0  0  0  0  0  0  0
    4.7923  -11.7329    0.0000 C   0  0  2  0  0  0  0  0  0  0  0  0
    5.5089  -11.3241    0.0000 C   0  0  2  0  0  0  0  0  0  0  0  0
    5.5132  -10.4991    0.0000 C   0  0  1  0  0  0  0  0  0  0  0  0
    4.8008  -10.0829    0.0000 O   0  0  0  0  0  0  0  0  0  0  0  0
    3.3634  -11.7255    0.0000 O   0  0  0  0  0  0  0  0  0  0  0  0
    3.3719  -10.0755    0.0000 C   0  0  0  0  0  0  0  0  0  0  0  0
    4.7880  -12.5579    0.0000 O   0  0  0  0  0  0  0  0  0  0  0  0
    6.2212  -11.7403    0.0000 O   0  0  0  0  0  0  0  0  0  0  0  0
   10.5186   -4.3260    0.0000 C   0  0  0  0  0  0  0  0  0  0  0  0
 20  1  1  0  0  0  0
 17  2  1  0  0  0  0
 15  3  1  0  0  0  0
 21 10  1  0  0  0  0
  7  4  1  0  0  0  0
 10  5  2  0  0  0  0
  6  5  1  0  0  0  0
  7  6  2  0  0  0  0
  8  7  1  0  0  0  0
  9  8  2  0  0  0  0
 10  9  1  0  0  0  0
 19 11  2  0  0  0  0
 21 12  1  0  0  0  0
 13 12  1  0  0  0  0
 18 13  2  0  0  0  0
 14 13  1  0  0  0  0
 15 14  2  0  0  0  0
 16 15  1  0  0  0  0
 17 16  2  0  0  0  0
 18 17  1  0  0  0  0
 19 18  1  0  0  0  0
 20 19  1  0  0  0  0
 21 20  2  0  0  0  0
 22 23  1  0  0  0  0
 23 24  1  0  0  0  0
 24 25  1  0  0  0  0
 25 26  1  0  0  0  0
 26 27  1  0  0  0  0
 27 22  1  0  0  0  0
 22 28  1  1  0  0  0
 24 29  1  1  0  0  0
 23 30  1  6  0  0  0
 25 31  1  6  0  0  0
 28 32  1  0  0  0  0
 33 34  1  0  0  0  0
 34 35  1  0  0  0  0
 35 36  1  0  0  0  0
 36 37  1  0  0  0  0
 37 38  1  0  0  0  0
 38 33  1  0  0  0  0
 34 39  1  1  0  0  0
 33 40  1  6  0  0  0
 35 41  1  6  0  0  0
 36 42  1  6  0  0  0
 37 32  1  1  0  0  0
 26  1  1  1  0  0  0
  4 43  1  0  0  0  0
M  END
>  <cdx:fragmentId>
5

$$$$
