98240.cdx
  Mrv1902 05222410192D          

 27 30  0  0  0  0            999 V2000
    6.4537   -6.9438    0.0000 C   0  0  0  0  0  0  0  0  0  0  0  0
    6.4537   -7.7687    0.0000 C   0  0  0  0  0  0  0  0  0  0  0  0
    7.1681   -8.1813    0.0000 C   0  0  0  0  0  0  0  0  0  0  0  0
    7.8826   -7.7687    0.0000 C   0  0  0  0  0  0  0  0  0  0  0  0
    7.8826   -6.9438    0.0000 C   0  0  0  0  0  0  0  0  0  0  0  0
    7.1681   -6.5313    0.0000 C   0  0  0  0  0  0  0  0  0  0  0  0
    8.5971   -8.1813    0.0000 N   0  0  0  0  0  0  0  0  0  0  0  0
    9.3116   -7.7687    0.0000 C   0  0  0  0  0  0  0  0  0  0  0  0
    9.3116   -6.9438    0.0000 C   0  0  0  0  0  0  0  0  0  0  0  0
    8.5971   -6.5313    0.0000 C   0  0  0  0  0  0  0  0  0  0  0  0
   10.0962   -8.0237    0.0000 O   0  0  0  0  0  0  0  0  0  0  0  0
   10.5811   -7.3563    0.0000 C   0  0  0  0  0  0  0  0  0  0  0  0
   10.0962   -6.6888    0.0000 C   0  0  0  0  0  0  0  0  0  0  0  0
    8.5971   -5.7062    0.0000 O   0  0  0  0  0  0  0  0  0  0  0  0
    9.3116   -5.2938    0.0000 C   0  0  0  0  0  0  0  0  0  0  0  0
    7.1681   -9.0062    0.0000 O   0  0  0  0  0  0  0  0  0  0  0  0
    6.4537   -9.4187    0.0000 C   0  0  2  0  0  0  0  0  0  0  0  0
    5.7392   -9.0062    0.0000 O   0  0  0  0  0  0  0  0  0  0  0  0
    5.0247   -9.4187    0.0000 C   0  0  1  0  0  0  0  0  0  0  0  0
    5.0247  -10.2437    0.0000 C   0  0  2  0  0  0  0  0  0  0  0  0
    5.7392  -10.6563    0.0000 C   0  0  1  0  0  0  0  0  0  0  0  0
    6.4537  -10.2437    0.0000 C   0  0  1  0  0  0  0  0  0  0  0  0
    4.3103   -9.0062    0.0000 C   0  0  0  0  0  0  0  0  0  0  0  0
    5.7392  -11.4813    0.0000 O   0  0  0  0  0  0  0  0  0  0  0  0
    4.3103  -10.6563    0.0000 O   0  0  0  0  0  0  0  0  0  0  0  0
    7.1681  -10.6563    0.0000 O   0  0  0  0  0  0  0  0  0  0  0  0
    3.5958   -9.4187    0.0000 O   0  0  0  0  0  0  0  0  0  0  0  0
  1  2  2  0  0  0  0
  2  3  1  0  0  0  0
  3  4  2  0  0  0  0
  4  5  1  0  0  0  0
  5  6  2  0  0  0  0
  6  1  1  0  0  0  0
  4  7  1  0  0  0  0
  7  8  2  0  0  0  0
  8  9  1  0  0  0  0
  9 10  2  0  0  0  0
 10  5  1  0  0  0  0
  8 11  1  0  0  0  0
 11 12  1  0  0  0  0
 12 13  2  0  0  0  0
 13  9  1  0  0  0  0
 10 14  1  0  0  0  0
 14 15  1  0  0  0  0
  3 16  1  0  0  0  0
 17 16  1  1  0  0  0
 17 18  1  0  0  0  0
 18 19  1  0  0  0  0
 19 20  1  0  0  0  0
 20 21  1  0  0  0  0
 21 22  1  0  0  0  0
 22 17  1  0  0  0  0
 19 23  1  1  0  0  0
 21 24  1  1  0  0  0
 20 25  1  6  0  0  0
 22 26  1  6  0  0  0
 23 27  1  0  0  0  0
M  END
>  <cdx:fragmentId>
5

$$$$
