11982428.cdx
  Mrv1902 05222410182D          

 28 31  0  0  0  0            999 V2000
    7.3257  -10.5594    0.0000 O   0  0  0  0  0  0  0  0  0  0  0  0
    8.0402  -10.1469    0.0000 C   0  0  2  0  0  0  0  0  0  0  0  0
    8.7546  -10.5594    0.0000 C   0  0  1  0  0  0  0  0  0  0  0  0
    8.7546  -11.3844    0.0000 O   0  0  0  0  0  0  0  0  0  0  0  0
    8.0402  -11.7969    0.0000 C   0  0  0  0  0  0  0  0  0  0  0  0
    7.3257  -11.3844    0.0000 C   0  0  0  0  0  0  0  0  0  0  0  0
    8.0402  -12.6219    0.0000 C   0  0  0  0  0  0  0  0  0  0  0  0
    7.3257  -13.0344    0.0000 C   0  0  0  0  0  0  0  0  0  0  0  0
    6.6112  -12.6219    0.0000 C   0  0  0  0  0  0  0  0  0  0  0  0
    6.6112  -11.7969    0.0000 C   0  0  0  0  0  0  0  0  0  0  0  0
    5.8968  -13.0344    0.0000 C   0  0  0  0  0  0  0  0  0  0  0  0
    5.1823  -12.6219    0.0000 C   0  0  0  0  0  0  0  0  0  0  0  0
    5.1823  -11.7969    0.0000 C   0  0  0  0  0  0  0  0  0  0  0  0
    5.8968  -11.3844    0.0000 O   0  0  0  0  0  0  0  0  0  0  0  0
    4.4678  -11.3844    0.0000 O   0  0  0  0  0  0  0  0  0  0  0  0
    8.7546  -13.0344    0.0000 O   0  0  0  0  0  0  0  0  0  0  0  0
    9.4691  -12.6219    0.0000 C   0  0  0  0  0  0  0  0  0  0  0  0
    9.4691  -10.1469    0.0000 C   0  0  0  0  0  0  0  0  0  0  0  0
   10.1836  -10.5594    0.0000 O   0  0  0  0  0  0  0  0  0  0  0  0
    8.0402   -9.3219    0.0000 C   0  0  0  0  0  0  0  0  0  0  0  0
    7.3257   -8.9094    0.0000 C   0  0  0  0  0  0  0  0  0  0  0  0
    7.3257   -8.0844    0.0000 C   0  0  0  0  0  0  0  0  0  0  0  0
    8.0402   -7.6719    0.0000 C   0  0  0  0  0  0  0  0  0  0  0  0
    8.7546   -8.0844    0.0000 C   0  0  0  0  0  0  0  0  0  0  0  0
    8.7546   -8.9094    0.0000 C   0  0  0  0  0  0  0  0  0  0  0  0
    6.6112   -7.6719    0.0000 O   0  0  0  0  0  0  0  0  0  0  0  0
    5.8968   -8.0844    0.0000 C   0  0  0  0  0  0  0  0  0  0  0  0
    8.0402   -6.8469    0.0000 O   0  0  0  0  0  0  0  0  0  0  0  0
  1  2  1  0  0  0  0
  2  3  1  0  0  0  0
  3  4  1  0  0  0  0
  4  5  1  0  0  0  0
  5  6  1  0  0  0  0
  1  6  1  0  0  0  0
  7  8  1  0  0  0  0
  8  9  2  0  0  0  0
  9 10  1  0  0  0  0
 10  6  2  0  0  0  0
  7  5  2  0  0  0  0
 11 12  2  0  0  0  0
 12 13  1  0  0  0  0
 13 14  1  0  0  0  0
 11  9  1  0  0  0  0
 14 10  1  0  0  0  0
 13 15  2  0  0  0  0
 16 17  1  0  0  0  0
  7 16  1  0  0  0  0
 18 19  1  0  0  0  0
  3 18  1  6  0  0  0
 20 21  1  0  0  0  0
 21 22  2  0  0  0  0
 22 23  1  0  0  0  0
 23 24  2  0  0  0  0
 24 25  1  0  0  0  0
 20 25  2  0  0  0  0
 26 27  1  0  0  0  0
 22 26  1  0  0  0  0
 23 28  1  0  0  0  0
  2 20  1  1  0  0  0
M  END
>  <cdx:groupId>
10703

>  <cdx:fragmentId>
10619

$$$$
