98256.cdx
  Mrv1902 05222410202D          

 30 31  0  0  0  0            999 V2000
    8.4207  -10.2800    0.0000 O   0  0  0  0  0  0  0  0  0  0  0  0
    9.1352   -9.8675    0.0000 C   0  0  0  0  0  0  0  0  0  0  0  0
    9.8497  -10.2800    0.0000 C   0  0  2  0  0  0  0  0  0  0  0  0
   10.2622  -10.9945    0.0000 O   0  0  0  0  0  0  0  0  0  0  0  0
   10.5641   -9.8675    0.0000 C   0  0  2  0  0  0  0  0  0  0  0  0
   10.5641   -9.0425    0.0000 O   0  0  0  0  0  0  0  0  0  0  0  0
   11.2786  -10.2800    0.0000 C   0  0  0  0  0  0  0  0  0  0  0  0
   11.9931   -9.8675    0.0000 O   0  0  0  0  0  0  0  0  0  0  0  0
    9.4372  -10.9945    0.0000 C   0  0  0  0  0  0  0  0  0  0  0  0
    7.7063   -9.8675    0.0000 C   0  0  2  0  0  0  0  0  0  0  0  0
    7.7063   -9.0425    0.0000 O   0  0  0  0  0  0  0  0  0  0  0  0
    6.9918   -8.6300    0.0000 C   0  0  1  0  0  0  0  0  0  0  0  0
    6.2773   -9.0425    0.0000 C   0  0  2  0  0  0  0  0  0  0  0  0
    6.2773   -9.8675    0.0000 C   0  0  1  0  0  0  0  0  0  0  0  0
    6.9918  -10.2800    0.0000 C   0  0  1  0  0  0  0  0  0  0  0  0
    6.9918   -7.8050    0.0000 C   0  0  0  0  0  0  0  0  0  0  0  0
    5.5628  -10.2800    0.0000 O   0  0  0  0  0  0  0  0  0  0  0  0
    5.5628   -8.6300    0.0000 O   0  0  0  0  0  0  0  0  0  0  0  0
    6.9918  -11.1050    0.0000 O   0  0  0  0  0  0  0  0  0  0  0  0
    6.2773   -7.3925    0.0000 O   0  0  0  0  0  0  0  0  0  0  0  0
    6.2773   -6.5675    0.0000 C   0  0  0  0  0  0  0  0  0  0  0  0
    5.5628   -6.1550    0.0000 C   0  0  0  0  0  0  0  0  0  0  0  0
    6.9918   -6.1550    0.0000 O   0  0  0  0  0  0  0  0  0  0  0  0
    5.5628   -5.3300    0.0000 C   0  0  0  0  0  0  0  0  0  0  0  0
    4.8484   -4.9175    0.0000 C   0  0  0  0  0  0  0  0  0  0  0  0
    4.1339   -5.3300    0.0000 C   0  0  0  0  0  0  0  0  0  0  0  0
    4.1339   -6.1550    0.0000 C   0  0  0  0  0  0  0  0  0  0  0  0
    4.8484   -6.5675    0.0000 C   0  0  0  0  0  0  0  0  0  0  0  0
    3.4194   -4.9175    0.0000 O   0  0  0  0  0  0  0  0  0  0  0  0
    2.7050   -5.3300    0.0000 C   0  0  0  0  0  0  0  0  0  0  0  0
  1  2  1  0  0  0  0
  2  3  1  0  0  0  0
  3  4  1  1  0  0  0
  3  5  1  0  0  0  0
  5  6  1  6  0  0  0
  5  7  1  0  0  0  0
  7  8  1  0  0  0  0
  3  9  1  6  0  0  0
 10  1  1  1  0  0  0
 10 11  1  0  0  0  0
 11 12  1  0  0  0  0
 12 13  1  0  0  0  0
 13 14  1  0  0  0  0
 14 15  1  0  0  0  0
 15 10  1  0  0  0  0
 12 16  1  1  0  0  0
 14 17  1  1  0  0  0
 13 18  1  6  0  0  0
 15 19  1  6  0  0  0
 16 20  1  0  0  0  0
 20 21  1  0  0  0  0
 21 22  1  0  0  0  0
 21 23  2  0  0  0  0
 22 24  2  0  0  0  0
 24 25  1  0  0  0  0
 25 26  2  0  0  0  0
 26 27  1  0  0  0  0
 27 28  2  0  0  0  0
 28 22  1  0  0  0  0
 26 29  1  0  0  0  0
 29 30  1  0  0  0  0
M  END
>  <cdx:fragmentId>
5

$$$$
