98255.cdx
  Mrv1902 05222410192D          

 33 35  0  0  0  0            999 V2000
    9.7801   -8.2010    0.0000 C   0  0  0  0  0  0  0  0  0  0  0  0
   10.4946   -7.7885    0.0000 C   0  0  0  0  0  0  0  0  0  0  0  0
   10.4946   -6.9635    0.0000 C   0  0  0  0  0  0  0  0  0  0  0  0
    9.7801   -6.5510    0.0000 C   0  0  0  0  0  0  0  0  0  0  0  0
    9.0656   -6.9635    0.0000 C   0  0  0  0  0  0  0  0  0  0  0  0
    9.0656   -7.7885    0.0000 C   0  0  0  0  0  0  0  0  0  0  0  0
    8.3512   -8.2010    0.0000 O   0  0  0  0  0  0  0  0  0  0  0  0
    7.6367   -7.7885    0.0000 C   0  0  0  0  0  0  0  0  0  0  0  0
    9.7801   -5.7260    0.0000 O   0  0  0  0  0  0  0  0  0  0  0  0
   10.4946   -5.3135    0.0000 C   0  0  0  0  0  0  0  0  0  0  0  0
   11.2090   -8.2010    0.0000 O   0  0  0  0  0  0  0  0  0  0  0  0
   11.9235   -7.7885    0.0000 C   0  0  0  0  0  0  0  0  0  0  0  0
    9.7801   -9.0260    0.0000 O   0  0  0  0  0  0  0  0  0  0  0  0
    9.0656   -9.4385    0.0000 C   0  0  1  0  0  0  0  0  0  0  0  0
    9.0656  -10.2635    0.0000 C   0  0  2  0  0  0  0  0  0  0  0  0
    9.7801  -10.6760    0.0000 O   0  0  0  0  0  0  0  0  0  0  0  0
    8.3512  -10.6760    0.0000 C   0  0  1  0  0  0  0  0  0  0  0  0
    8.3512  -11.5010    0.0000 O   0  0  0  0  0  0  0  0  0  0  0  0
    7.6367  -10.2635    0.0000 C   0  0  2  0  0  0  0  0  0  0  0  0
    6.9222  -10.6760    0.0000 O   0  0  0  0  0  0  0  0  0  0  0  0
    7.6367   -9.4385    0.0000 C   0  0  2  0  0  0  0  0  0  0  0  0
    8.3512   -9.0260    0.0000 O   0  0  0  0  0  0  0  0  0  0  0  0
    6.9222   -9.0260    0.0000 C   0  0  0  0  0  0  0  0  0  0  0  0
    6.2077   -9.4385    0.0000 O   0  0  0  0  0  0  0  0  0  0  0  0
    5.4933   -9.0260    0.0000 C   0  0  1  0  0  0  0  0  0  0  0  0
    4.7396   -9.3615    0.0000 C   0  0  2  0  0  0  0  0  0  0  0  0
    4.5681  -10.1685    0.0000 O   0  0  0  0  0  0  0  0  0  0  0  0
    4.1876   -8.7484    0.0000 C   0  0  0  0  0  0  0  0  0  0  0  0
    3.5201   -9.2333    0.0000 O   0  0  0  0  0  0  0  0  0  0  0  0
    4.6001   -8.0339    0.0000 C   0  0  0  0  0  0  0  0  0  0  0  0
    5.4070   -8.2055    0.0000 O   0  0  0  0  0  0  0  0  0  0  0  0
    3.4339   -8.4129    0.0000 C   0  0  0  0  0  0  0  0  0  0  0  0
    2.7665   -8.8978    0.0000 O   0  0  0  0  0  0  0  0  0  0  0  0
  1  2  1  0  0  0  0
  2  3  2  0  0  0  0
  3  4  1  0  0  0  0
  4  5  2  0  0  0  0
  5  6  1  0  0  0  0
  1  6  2  0  0  0  0
  7  8  1  0  0  0  0
  6  7  1  0  0  0  0
  9 10  1  0  0  0  0
  4  9  1  0  0  0  0
 11 12  1  0  0  0  0
  2 11  1  0  0  0  0
 14 13  1  1  0  0  0
 14 15  1  0  0  0  0
 15 16  1  6  0  0  0
 15 17  1  0  0  0  0
 17 18  1  1  0  0  0
 17 19  1  0  0  0  0
 19 20  1  6  0  0  0
 19 21  1  0  0  0  0
 21 22  1  0  0  0  0
 21 23  1  1  0  0  0
 23 24  1  0  0  0  0
 14 22  1  0  0  0  0
 25 26  1  0  0  0  0
 26 27  1  6  0  0  0
 26 28  1  0  0  0  0
 28 29  1  0  0  0  0
 28 30  1  0  0  0  0
 30 31  1  0  0  0  0
 28 32  1  0  0  0  0
 32 33  1  0  0  0  0
 25 31  1  0  0  0  0
 25 24  1  1  0  0  0
  1 13  1  0  0  0  0
M  END
>  <cdx:fragmentId>
27

$$$$
