98250.cdx
  Mrv1902 05222410192D          

 46 51  0  0  0  0            999 V2000
   12.2358  -10.6150    0.0000 C   0  0  1  0  0  0  0  0  0  0  0  0
   12.2358   -9.7900    0.0000 C   0  0  0  0  0  0  0  0  0  0  0  0
   12.9503   -9.3775    0.0000 C   0  0  0  0  0  0  0  0  0  0  0  0
   12.9503  -11.0275    0.0000 C   0  0  0  0  0  0  0  0  0  0  0  0
   13.6647  -10.6150    0.0000 C   0  0  0  0  0  0  0  0  0  0  0  0
   14.3792  -11.0275    0.0000 C   0  0  0  0  0  0  0  0  0  0  0  0
   15.0937  -10.6150    0.0000 C   0  0  0  0  0  0  0  0  0  0  0  0
   15.0937   -9.7900    0.0000 C   0  0  1  0  0  0  0  0  0  0  0  0
   15.8082   -9.3775    0.0000 C   0  0  2  0  0  0  0  0  0  0  0  0
   16.5928   -9.6324    0.0000 C   0  0  0  0  0  0  0  0  0  0  0  0
   17.0777   -8.9650    0.0000 C   0  0  2  0  0  0  0  0  0  0  0  0
   17.5626   -9.6324    0.0000 H   0  0  0  0  0  0  0  0  0  0  0  0
   17.8623   -8.7101    0.0000 O   0  0  0  0  0  0  0  0  0  0  0  0
   16.5928   -8.2976    0.0000 C   0  0  2  0  0  0  0  0  0  0  0  0
   16.2311   -7.5561    0.0000 H   0  0  0  0  0  0  0  0  0  0  0  0
   17.0777   -7.6301    0.0000 C   0  0  0  0  0  0  0  0  0  0  0  0
   17.8623   -7.8851    0.0000 C   0  0  0  0  0  0  0  0  0  0  0  0
   18.6828   -7.7988    0.0000 C   0  0  0  0  0  0  0  0  0  0  0  0
   19.1677   -8.4663    0.0000 C   0  0  0  0  0  0  0  0  0  0  0  0
   19.9882   -8.3800    0.0000 C   0  0  2  0  0  0  0  0  0  0  0  0
   20.4731   -9.0475    0.0000 C   0  0  0  0  0  0  0  0  0  0  0  0
   15.8082   -8.5525    0.0000 C   0  0  2  0  0  0  0  0  0  0  0  0
   15.8082   -7.7275    0.0000 C   0  0  0  0  0  0  0  0  0  0  0  0
   15.0937   -8.1400    0.0000 C   0  0  0  0  0  0  0  0  0  0  0  0
   14.3792   -8.5525    0.0000 C   0  0  0  0  0  0  0  0  0  0  0  0
   14.3792   -9.3775    0.0000 C   0  0  2  0  0  0  0  0  0  0  0  0
   13.6647   -9.7900    0.0000 C   0  0  1  0  0  0  0  0  0  0  0  0
   13.6647   -8.9650    0.0000 C   0  0  0  0  0  0  0  0  0  0  0  0
   14.3792  -10.2025    0.0000 H   0  0  0  0  0  0  0  0  0  0  0  0
   15.0937   -8.9650    0.0000 H   0  0  0  0  0  0  0  0  0  0  0  0
   15.8082  -10.2025    0.0000 H   0  0  0  0  0  0  0  0  0  0  0  0
   11.5213  -11.0275    0.0000 O   0  0  0  0  0  0  0  0  0  0  0  0
   21.2936   -8.9612    0.0000 O   0  0  0  0  0  0  0  0  0  0  0  0
   21.7785   -9.6287    0.0000 C   0  0  2  0  0  0  0  0  0  0  0  0
   21.4430  -10.3823    0.0000 O   0  0  0  0  0  0  0  0  0  0  0  0
   21.9279  -11.0498    0.0000 C   0  0  1  0  0  0  0  0  0  0  0  0
   22.7484  -10.9635    0.0000 C   0  0  2  0  0  0  0  0  0  0  0  0
   23.0839  -10.2099    0.0000 C   0  0  1  0  0  0  0  0  0  0  0  0
   22.5990   -9.5424    0.0000 C   0  0  1  0  0  0  0  0  0  0  0  0
   21.5923  -11.8035    0.0000 C   0  0  0  0  0  0  0  0  0  0  0  0
   23.9044  -10.1236    0.0000 O   0  0  0  0  0  0  0  0  0  0  0  0
   22.9346   -8.7888    0.0000 O   0  0  0  0  0  0  0  0  0  0  0  0
   23.2333  -11.6310    0.0000 O   0  0  0  0  0  0  0  0  0  0  0  0
   22.0773  -12.4709    0.0000 O   0  0  0  0  0  0  0  0  0  0  0  0
   20.3238   -7.6263    0.0000 C   0  0  0  0  0  0  0  0  0  0  0  0
   16.8228   -6.8455    0.0000 C   0  0  0  0  0  0  0  0  0  0  0  0
  1  2  1  0  0  0  0
  2  3  1  0  0  0  0
  1  4  1  0  0  0  0
  4  5  1  0  0  0  0
  5  6  2  0  0  0  0
  6  7  1  0  0  0  0
  7  8  1  0  0  0  0
  8  9  1  0  0  0  0
  9 10  1  0  0  0  0
 10 11  1  0  0  0  0
 11 12  1  6  0  0  0
 11 13  1  0  0  0  0
 11 14  1  0  0  0  0
 14 15  1  6  0  0  0
 14 16  1  0  0  0  0
 16 17  2  0  0  0  0
 13 17  1  0  0  0  0
 17 18  1  0  0  0  0
 18 19  1  0  0  0  0
 19 20  1  0  0  0  0
 20 21  1  0  0  0  0
 14 22  1  0  0  0  0
  9 22  1  0  0  0  0
 22 23  1  1  0  0  0
 22 24  1  0  0  0  0
 24 25  1  0  0  0  0
 25 26  1  0  0  0  0
  8 26  1  0  0  0  0
 26 27  1  0  0  0  0
  3 27  1  0  0  0  0
  5 27  1  0  0  0  0
 27 28  1  1  0  0  0
 26 29  1  6  0  0  0
  8 30  1  1  0  0  0
  9 31  1  6  0  0  0
  1 32  1  1  0  0  0
 21 33  1  0  0  0  0
 34 33  1  1  0  0  0
 34 35  1  0  0  0  0
 35 36  1  0  0  0  0
 36 37  1  0  0  0  0
 37 38  1  0  0  0  0
 38 39  1  0  0  0  0
 39 34  1  0  0  0  0
 36 40  1  1  0  0  0
 38 41  1  1  0  0  0
 39 42  1  6  0  0  0
 37 43  1  6  0  0  0
 40 44  1  0  0  0  0
 20 45  1  1  0  0  0
 16 46  1  6  0  0  0
M  END
>  <cdx:fragmentId>
5

$$$$
