98254.cdx
  Mrv1902 05222410192D          

 24 26  0  0  0  0            999 V2000
    8.2639   -8.8197    0.0000 C   0  0  0  0  0  0  0  0  0  0  0  0
    8.2639   -9.6447    0.0000 C   0  0  0  0  0  0  0  0  0  0  0  0
    7.5494  -10.0572    0.0000 C   0  0  0  0  0  0  0  0  0  0  0  0
    7.5494  -10.8822    0.0000 O   0  0  0  0  0  0  0  0  0  0  0  0
    6.8350   -9.6447    0.0000 C   0  0  0  0  0  0  0  0  0  0  0  0
    6.1205  -10.0572    0.0000 C   0  0  0  0  0  0  0  0  0  0  0  0
    5.4060   -9.6447    0.0000 C   0  0  0  0  0  0  0  0  0  0  0  0
    5.4060   -8.8197    0.0000 C   0  0  0  0  0  0  0  0  0  0  0  0
    6.1205   -8.4072    0.0000 C   0  0  0  0  0  0  0  0  0  0  0  0
    6.8350   -8.8197    0.0000 C   0  0  0  0  0  0  0  0  0  0  0  0
    7.5494   -8.4072    0.0000 O   0  0  0  0  0  0  0  0  0  0  0  0
    8.9784   -8.4072    0.0000 C   0  0  0  0  0  0  0  0  0  0  0  0
    8.9784   -7.5822    0.0000 C   0  0  0  0  0  0  0  0  0  0  0  0
    9.6929   -7.1697    0.0000 C   0  0  0  0  0  0  0  0  0  0  0  0
   10.4073   -7.5822    0.0000 C   0  0  0  0  0  0  0  0  0  0  0  0
   10.4073   -8.4072    0.0000 C   0  0  0  0  0  0  0  0  0  0  0  0
    9.6929   -8.8197    0.0000 C   0  0  0  0  0  0  0  0  0  0  0  0
    9.6929   -6.3447    0.0000 O   0  0  0  0  0  0  0  0  0  0  0  0
   10.4073   -5.9322    0.0000 C   0  0  0  0  0  0  0  0  0  0  0  0
    8.2639   -7.1697    0.0000 O   0  0  0  0  0  0  0  0  0  0  0  0
    7.5494   -7.5822    0.0000 C   0  0  0  0  0  0  0  0  0  0  0  0
    4.6916   -8.4072    0.0000 O   0  0  0  0  0  0  0  0  0  0  0  0
    3.9771   -8.8197    0.0000 C   0  0  0  0  0  0  0  0  0  0  0  0
    6.1205  -10.8822    0.0000 O   0  0  0  0  0  0  0  0  0  0  0  0
  1  2  2  0  0  0  0
  2  3  1  0  0  0  0
  3  4  2  0  0  0  0
  3  5  1  0  0  0  0
  5  6  1  0  0  0  0
  6  7  2  0  0  0  0
  7  8  1  0  0  0  0
  8  9  2  0  0  0  0
  9 10  1  0  0  0  0
  5 10  2  0  0  0  0
 10 11  1  0  0  0  0
  1 11  1  0  0  0  0
  1 12  1  0  0  0  0
 12 13  1  0  0  0  0
 13 14  2  0  0  0  0
 14 15  1  0  0  0  0
 15 16  2  0  0  0  0
 16 17  1  0  0  0  0
 12 17  2  0  0  0  0
 18 19  1  0  0  0  0
 14 18  1  0  0  0  0
 20 21  1  0  0  0  0
 13 20  1  0  0  0  0
 22 23  1  0  0  0  0
  8 22  1  0  0  0  0
  6 24  1  0  0  0  0
M  END
>  <cdx:fragmentId>
5

$$$$
