98251.cdx
  Mrv1902 05222410192D          

 58 63  0  0  0  0            999 V2000
    7.1687   -9.6112    0.0000 C   0  0  0  0  0  0  0  0  0  0  0  0
    7.1687  -10.4363    0.0000 C   0  0  0  0  0  0  0  0  0  0  0  0
    7.8831  -10.8488    0.0000 C   0  0  0  0  0  0  0  0  0  0  0  0
    8.5976  -10.4363    0.0000 C   0  0  0  0  0  0  0  0  0  0  0  0
    8.5976   -9.6112    0.0000 C   0  0  0  0  0  0  0  0  0  0  0  0
    7.8831   -9.1987    0.0000 C   0  0  0  0  0  0  0  0  0  0  0  0
    9.3121  -10.8488    0.0000 C   0  0  0  0  0  0  0  0  0  0  0  0
   10.0266  -10.4363    0.0000 C   0  0  0  0  0  0  0  0  0  0  0  0
   10.0266   -9.6112    0.0000 C   0  0  0  0  0  0  0  0  0  0  0  0
    9.3121   -9.1987    0.0000 O   0  0  0  0  0  0  0  0  0  0  0  0
    9.3121  -11.6738    0.0000 O   0  0  0  0  0  0  0  0  0  0  0  0
   10.7410  -11.6738    0.0000 C   0  0  0  0  0  0  0  0  0  0  0  0
   10.7410  -10.8488    0.0000 C   0  0  0  0  0  0  0  0  0  0  0  0
   11.4555   -9.6112    0.0000 C   0  0  0  0  0  0  0  0  0  0  0  0
   10.7410   -9.1987    0.0000 C   0  0  0  0  0  0  0  0  0  0  0  0
   12.1700   -9.1987    0.0000 C   0  0  0  0  0  0  0  0  0  0  0  0
   12.1700   -8.3737    0.0000 C   0  0  0  0  0  0  0  0  0  0  0  0
   11.4555   -7.9612    0.0000 C   0  0  0  0  0  0  0  0  0  0  0  0
   10.7410   -8.3737    0.0000 C   0  0  0  0  0  0  0  0  0  0  0  0
    7.8969   -7.7687    0.0000 C   0  0  2  0  0  0  0  0  0  0  0  0
    8.6113   -7.3561    0.0000 C   0  0  0  0  0  0  0  0  0  0  0  0
    8.6113   -6.5311    0.0000 C   0  0  0  0  0  0  0  0  0  0  0  0
    7.8969   -6.1188    0.0000 C   0  0  0  0  0  0  0  0  0  0  0  0
    7.1825   -6.5311    0.0000 C   0  0  1  0  0  0  0  0  0  0  0  0
    7.1825   -7.3561    0.0000 C   0  0  1  0  0  0  0  0  0  0  0  0
    9.3258   -6.1186    0.0000 C   0  0  0  0  0  0  0  0  0  0  0  0
   10.0266   -7.9612    0.0000 O   0  0  0  0  0  0  0  0  0  0  0  0
   12.8844   -7.9612    0.0000 O   0  0  0  0  0  0  0  0  0  0  0  0
   11.4555  -12.0862    0.0000 C   0  0  0  0  0  0  0  0  0  0  0  0
   11.0430  -12.8007    0.0000 C   0  0  0  0  0  0  0  0  0  0  0  0
   11.8680  -11.3718    0.0000 C   0  0  0  0  0  0  0  0  0  0  0  0
   12.1700  -12.4987    0.0000 O   0  0  0  0  0  0  0  0  0  0  0  0
    7.8831  -11.6738    0.0000 O   0  0  0  0  0  0  0  0  0  0  0  0
    6.4542   -9.1987    0.0000 O   0  0  0  0  0  0  0  0  0  0  0  0
    6.4680   -6.1186    0.0000 C   0  0  0  0  0  0  0  0  0  0  0  0
    6.4681   -5.2936    0.0000 C   0  0  0  0  0  0  0  0  0  0  0  0
    5.7536   -4.8811    0.0000 C   0  0  0  0  0  0  0  0  0  0  0  0
    5.0391   -5.2936    0.0000 C   0  0  0  0  0  0  0  0  0  0  0  0
    5.0391   -6.1186    0.0000 C   0  0  0  0  0  0  0  0  0  0  0  0
    5.7536   -6.5312    0.0000 C   0  0  0  0  0  0  0  0  0  0  0  0
    4.3247   -4.8811    0.0000 O   0  0  0  0  0  0  0  0  0  0  0  0
    7.1826   -4.8812    0.0000 O   0  0  0  0  0  0  0  0  0  0  0  0
    6.2342   -7.9886    0.0000 C   0  0  0  0  0  0  0  0  0  0  0  0
    5.5198   -7.5760    0.0000 C   0  0  0  0  0  0  0  0  0  0  0  0
    6.2342   -8.8136    0.0000 O   0  0  0  0  0  0  0  0  0  0  0  0
    5.5199   -6.7510    0.0000 C   0  0  0  0  0  0  0  0  0  0  0  0
    4.8055   -6.3384    0.0000 C   0  0  0  0  0  0  0  0  0  0  0  0
    4.0910   -6.7510    0.0000 C   0  0  0  0  0  0  0  0  0  0  0  0
    4.0910   -7.5760    0.0000 C   0  0  0  0  0  0  0  0  0  0  0  0
    4.8055   -7.9886    0.0000 C   0  0  0  0  0  0  0  0  0  0  0  0
    3.3765   -6.3385    0.0000 O   0  0  0  0  0  0  0  0  0  0  0  0
    3.3765   -7.9885    0.0000 C   0  0  0  0  0  0  0  0  0  0  0  0
    3.3765   -8.8135    0.0000 C   0  0  0  0  0  0  0  0  0  0  0  0
    2.6620   -9.2260    0.0000 C   0  0  0  0  0  0  0  0  0  0  0  0
    3.0745   -9.9405    0.0000 C   0  0  0  0  0  0  0  0  0  0  0  0
    2.2495   -8.5115    0.0000 C   0  0  0  0  0  0  0  0  0  0  0  0
    1.9475   -9.6385    0.0000 O   0  0  0  0  0  0  0  0  0  0  0  0
    4.8055   -8.8136    0.0000 O   0  0  0  0  0  0  0  0  0  0  0  0
  1  2  2  0  0  0  0
  2  3  1  0  0  0  0
  3  4  2  0  0  0  0
  4  5  1  0  0  0  0
  5  6  2  0  0  0  0
  6  1  1  0  0  0  0
  4  7  1  0  0  0  0
  7  8  1  0  0  0  0
  8  9  2  0  0  0  0
  9 10  1  0  0  0  0
 10  5  1  0  0  0  0
  7 11  2  0  0  0  0
 12 13  1  0  0  0  0
 13  8  1  0  0  0  0
 14 15  2  0  0  0  0
 15  9  1  0  0  0  0
 14 16  1  0  0  0  0
 16 17  2  0  0  0  0
 17 18  1  0  0  0  0
 18 19  2  0  0  0  0
 19 15  1  0  0  0  0
 20  6  1  1  0  0  0
 20 21  1  0  0  0  0
 21 22  2  0  0  0  0
 22 23  1  0  0  0  0
 23 24  1  0  0  0  0
 24 25  1  0  0  0  0
 25 20  1  0  0  0  0
 22 26  1  0  0  0  0
 19 27  1  0  0  0  0
 17 28  1  0  0  0  0
 12 29  1  0  0  0  0
 29 30  1  0  0  0  0
 29 31  1  0  0  0  0
 29 32  1  0  0  0  0
  3 33  1  0  0  0  0
  1 34  1  0  0  0  0
 24 35  1  1  0  0  0
 35 36  2  0  0  0  0
 36 37  1  0  0  0  0
 37 38  2  0  0  0  0
 38 39  1  0  0  0  0
 39 40  2  0  0  0  0
 40 35  1  0  0  0  0
 38 41  1  0  0  0  0
 36 42  1  0  0  0  0
 25 43  1  6  0  0  0
 43 44  1  0  0  0  0
 43 45  2  0  0  0  0
 44 46  2  0  0  0  0
 46 47  1  0  0  0  0
 47 48  2  0  0  0  0
 48 49  1  0  0  0  0
 49 50  2  0  0  0  0
 50 44  1  0  0  0  0
 48 51  1  0  0  0  0
 49 52  1  0  0  0  0
 52 53  1  0  0  0  0
 53 54  1  0  0  0  0
 54 55  1  0  0  0  0
 54 56  1  0  0  0  0
 54 57  1  0  0  0  0
 50 58  1  0  0  0  0
M  END
>  <cdx:fragmentId>
5

$$$$
