98258.cdx
  Mrv1902 05222410272D          

 48 51  0  0  0  0            999 V2000
    7.1555   -4.1877    0.0000 C   0  0  0  0  0  0  0  0  0  0  0  0
    7.8700   -4.6002    0.0000 C   0  0  0  0  0  0  0  0  0  0  0  0
    7.8700   -5.4252    0.0000 C   0  0  2  0  0  0  0  0  0  0  0  0
    7.1555   -5.8377    0.0000 C   0  0  0  0  0  0  0  0  0  0  0  0
    6.4410   -5.4252    0.0000 C   0  0  1  0  0  0  0  0  0  0  0  0
    6.4410   -4.6002    0.0000 C   0  0  0  0  0  0  0  0  0  0  0  0
    7.1555   -6.6627    0.0000 O   0  0  0  0  0  0  0  0  0  0  0  0
    5.7266   -5.8377    0.0000 O   0  0  0  0  0  0  0  0  0  0  0  0
    5.0121   -5.4252    0.0000 C   0  0  0  0  0  0  0  0  0  0  0  0
    4.2976   -5.8377    0.0000 C   0  0  0  0  0  0  0  0  0  0  0  0
    3.5831   -5.4252    0.0000 C   0  0  0  0  0  0  0  0  0  0  0  0
    5.0121   -4.6002    0.0000 O   0  0  0  0  0  0  0  0  0  0  0  0
    2.8687   -5.8377    0.0000 C   0  0  0  0  0  0  0  0  0  0  0  0
    2.1542   -5.4252    0.0000 C   0  0  0  0  0  0  0  0  0  0  0  0
    1.4397   -5.8377    0.0000 C   0  0  0  0  0  0  0  0  0  0  0  0
    1.4397   -6.6627    0.0000 C   0  0  0  0  0  0  0  0  0  0  0  0
    2.1542   -7.0752    0.0000 C   0  0  0  0  0  0  0  0  0  0  0  0
    2.8687   -6.6627    0.0000 C   0  0  0  0  0  0  0  0  0  0  0  0
    0.7253   -7.0752    0.0000 O   0  0  0  0  0  0  0  0  0  0  0  0
    0.7253   -5.4252    0.0000 O   0  0  0  0  0  0  0  0  0  0  0  0
    8.5844   -5.8377    0.0000 O   0  0  0  0  0  0  0  0  0  0  0  0
    9.2989   -5.4252    0.0000 C   0  0  0  0  0  0  0  0  0  0  0  0
   10.0134   -5.8377    0.0000 C   0  0  0  0  0  0  0  0  0  0  0  0
   10.7279   -5.4252    0.0000 C   0  0  0  0  0  0  0  0  0  0  0  0
    9.2989   -4.6002    0.0000 O   0  0  0  0  0  0  0  0  0  0  0  0
   11.4423   -5.8377    0.0000 C   0  0  0  0  0  0  0  0  0  0  0  0
   12.1568   -5.4252    0.0000 C   0  0  0  0  0  0  0  0  0  0  0  0
   12.8713   -5.8377    0.0000 C   0  0  0  0  0  0  0  0  0  0  0  0
   12.8713   -6.6627    0.0000 C   0  0  0  0  0  0  0  0  0  0  0  0
   12.1568   -7.0752    0.0000 C   0  0  0  0  0  0  0  0  0  0  0  0
   11.4423   -6.6627    0.0000 C   0  0  0  0  0  0  0  0  0  0  0  0
   13.5857   -7.0752    0.0000 O   0  0  0  0  0  0  0  0  0  0  0  0
   13.5857   -5.4252    0.0000 O   0  0  0  0  0  0  0  0  0  0  0  0
    6.7430   -3.4732    0.0000 O   0  0  0  0  0  0  0  0  0  0  0  0
    7.5680   -3.4732    0.0000 C   0  0  0  0  0  0  0  0  0  0  0  0
    7.1555   -2.7587    0.0000 O   0  0  0  0  0  0  0  0  0  0  0  0
    8.3930   -3.4732    0.0000 O   0  0  0  0  0  0  0  0  0  0  0  0
   14.3002   -5.8377    0.0000 C   0  0  2  0  0  0  0  0  0  0  0  0
   14.3002   -6.6627    0.0000 O   0  0  0  0  0  0  0  0  0  0  0  0
   15.0147   -7.0752    0.0000 C   0  0  1  0  0  0  0  0  0  0  0  0
   15.7292   -6.6627    0.0000 C   0  0  2  0  0  0  0  0  0  0  0  0
   15.7292   -5.8377    0.0000 C   0  0  1  0  0  0  0  0  0  0  0  0
   15.0147   -5.4252    0.0000 C   0  0  1  0  0  0  0  0  0  0  0  0
   15.0147   -7.9002    0.0000 C   0  0  0  0  0  0  0  0  0  0  0  0
   16.4436   -5.4252    0.0000 O   0  0  0  0  0  0  0  0  0  0  0  0
   15.0147   -4.6002    0.0000 O   0  0  0  0  0  0  0  0  0  0  0  0
   16.4436   -7.0752    0.0000 O   0  0  0  0  0  0  0  0  0  0  0  0
   15.7292   -8.3127    0.0000 O   0  0  0  0  0  0  0  0  0  0  0  0
  1  2  1  0  0  0  0
  2  3  1  0  0  0  0
  3  4  1  0  0  0  0
  4  5  1  0  0  0  0
  5  6  1  0  0  0  0
  1  6  1  0  0  0  0
  4  7  1  0  0  0  0
  9 10  1  0  0  0  0
 10 11  2  0  0  0  0
  9 12  2  0  0  0  0
 13 14  1  0  0  0  0
 14 15  2  0  0  0  0
 15 16  1  0  0  0  0
 16 17  2  0  0  0  0
 17 18  1  0  0  0  0
 13 18  2  0  0  0  0
 16 19  1  0  0  0  0
 15 20  1  0  0  0  0
 11 13  1  0  0  0  0
  8  9  1  0  0  0  0
  5  8  1  6  0  0  0
 22 23  1  0  0  0  0
 23 24  2  0  0  0  0
 22 25  2  0  0  0  0
 26 27  1  0  0  0  0
 27 28  2  0  0  0  0
 28 29  1  0  0  0  0
 29 30  2  0  0  0  0
 30 31  1  0  0  0  0
 26 31  2  0  0  0  0
 29 32  1  0  0  0  0
 28 33  1  0  0  0  0
 24 26  1  0  0  0  0
 21 22  1  0  0  0  0
  3 21  1  1  0  0  0
  1 34  1  0  0  0  0
  1 35  1  0  0  0  0
 35 36  2  0  0  0  0
 35 37  1  0  0  0  0
 38 33  1  1  0  0  0
 38 39  1  0  0  0  0
 39 40  1  0  0  0  0
 40 41  1  0  0  0  0
 41 42  1  0  0  0  0
 42 43  1  0  0  0  0
 43 38  1  0  0  0  0
 40 44  1  1  0  0  0
 42 45  1  1  0  0  0
 43 46  1  6  0  0  0
 41 47  1  6  0  0  0
 44 48  1  0  0  0  0
M  END
>  <cdx:fragmentId>
83415

$$$$
