98262.cdx
  Mrv1902 05222410282D          

 43 47  0  0  0  0            999 V2000
    6.9622   -8.2172    0.0000 O   0  0  0  0  0  0  0  0  0  0  0  0
   11.9635   -4.5047    0.0000 O   0  0  0  0  0  0  0  0  0  0  0  0
    9.8200   -4.9172    0.0000 C   0  0  0  0  0  0  0  0  0  0  0  0
   10.5345   -4.5047    0.0000 C   0  0  0  0  0  0  0  0  0  0  0  0
   11.2490   -4.9172    0.0000 C   0  0  0  0  0  0  0  0  0  0  0  0
   11.2490   -5.7422    0.0000 C   0  0  0  0  0  0  0  0  0  0  0  0
   10.5345   -6.1547    0.0000 C   0  0  0  0  0  0  0  0  0  0  0  0
    9.8200   -5.7422    0.0000 C   0  0  0  0  0  0  0  0  0  0  0  0
    4.8188   -6.1547    0.0000 C   0  0  0  0  0  0  0  0  0  0  0  0
    5.5332   -5.7422    0.0000 O   0  0  0  0  0  0  0  0  0  0  0  0
    6.2477   -8.6297    0.0000 O   0  0  0  0  0  0  0  0  0  0  0  0
    4.8188   -9.4547    0.0000 O   0  0  0  0  0  0  0  0  0  0  0  0
    3.3898   -8.6297    0.0000 O   0  0  0  0  0  0  0  0  0  0  0  0
    2.6753   -7.3922    0.0000 O   0  0  0  0  0  0  0  0  0  0  0  0
    3.3898   -6.9797    0.0000 C   0  0  0  0  0  0  0  0  0  0  0  0
    4.1043   -7.3922    0.0000 C   0  0  2  0  0  0  0  0  0  0  0  0
    4.1043   -8.2172    0.0000 C   0  0  2  0  0  0  0  0  0  0  0  0
    4.8188   -8.6297    0.0000 C   0  0  1  0  0  0  0  0  0  0  0  0
    5.5332   -8.2172    0.0000 C   0  0  2  0  0  0  0  0  0  0  0  0
    5.5332   -7.3922    0.0000 C   0  0  1  0  0  0  0  0  0  0  0  0
    4.8188   -6.9797    0.0000 O   0  0  0  0  0  0  0  0  0  0  0  0
    8.3911   -8.2172    0.0000 O   0  0  0  0  0  0  0  0  0  0  0  0
    8.3911   -5.7422    0.0000 O   0  0  0  0  0  0  0  0  0  0  0  0
    7.6766   -6.1547    0.0000 C   0  0  0  0  0  0  0  0  0  0  0  0
    6.9622   -5.7422    0.0000 C   0  0  0  0  0  0  0  0  0  0  0  0
    6.2477   -6.1547    0.0000 C   0  0  0  0  0  0  0  0  0  0  0  0
    6.2477   -6.9797    0.0000 C   0  0  0  0  0  0  0  0  0  0  0  0
    6.9622   -7.3922    0.0000 C   0  0  0  0  0  0  0  0  0  0  0  0
    7.6766   -6.9797    0.0000 C   0  0  0  0  0  0  0  0  0  0  0  0
    8.3911   -7.3922    0.0000 C   0  0  0  0  0  0  0  0  0  0  0  0
    9.1056   -6.9797    0.0000 C   0  0  0  0  0  0  0  0  0  0  0  0
    9.1056   -6.1547    0.0000 C   0  0  0  0  0  0  0  0  0  0  0  0
    5.5260  -10.7054    0.0000 C   0  0  1  0  0  0  0  0  0  0  0  0
    6.2398  -11.1190    0.0000 C   0  0  1  0  0  0  0  0  0  0  0  0
    6.9549  -10.7076    0.0000 C   0  0  2  0  0  0  0  0  0  0  0  0
    6.9562   -9.8826    0.0000 C   0  0  2  0  0  0  0  0  0  0  0  0
    6.2423   -9.4690    0.0000 C   0  0  1  0  0  0  0  0  0  0  0  0
    5.5272   -9.8804    0.0000 O   0  0  0  0  0  0  0  0  0  0  0  0
    6.2386  -11.9440    0.0000 O   0  0  0  0  0  0  0  0  0  0  0  0
    4.8109  -11.1168    0.0000 C   0  0  0  0  0  0  0  0  0  0  0  0
    7.6688  -11.1212    0.0000 O   0  0  0  0  0  0  0  0  0  0  0  0
    7.6713   -9.4712    0.0000 O   0  0  0  0  0  0  0  0  0  0  0  0
    5.5332   -6.5672    0.0000 H   0  0  0  0  0  0  0  0  0  0  0  0
 28  1  1  0  0  0  0
 32  8  1  0  0  0  0
  5  2  1  0  0  0  0
  8  3  2  0  0  0  0
  4  3  1  0  0  0  0
  5  4  2  0  0  0  0
  6  5  1  0  0  0  0
  7  6  2  0  0  0  0
  8  7  1  0  0  0  0
 26 10  1  0  0  0  0
 10  9  1  0  0  0  0
 20 27  1  0  0  0  0
 19 11  1  6  0  0  0
 18 12  1  1  0  0  0
 17 13  1  6  0  0  0
 16 15  1  1  0  0  0
 15 14  1  0  0  0  0
 21 16  1  0  0  0  0
 17 16  1  0  0  0  0
 18 17  1  0  0  0  0
 19 18  1  0  0  0  0
 20 19  1  0  0  0  0
 21 20  1  0  0  0  0
 30 22  2  0  0  0  0
 32 23  1  0  0  0  0
 24 23  1  0  0  0  0
 29 24  2  0  0  0  0
 25 24  1  0  0  0  0
 26 25  2  0  0  0  0
 27 26  1  0  0  0  0
 28 27  2  0  0  0  0
 29 28  1  0  0  0  0
 30 29  1  0  0  0  0
 31 30  1  0  0  0  0
 32 31  2  0  0  0  0
 33 34  1  0  0  0  0
 34 35  1  0  0  0  0
 35 36  1  0  0  0  0
 36 37  1  0  0  0  0
 37 38  1  0  0  0  0
 38 33  1  0  0  0  0
 34 39  1  1  0  0  0
 33 40  1  6  0  0  0
 35 41  1  6  0  0  0
 36 42  1  6  0  0  0
 37 11  1  1  0  0  0
 20 43  1  6  0  0  0
M  END
>  <cdx:fragmentId>
5

$$$$
