98266.cdx
  Mrv1902 05222410262D          

 87 96  0  0  0  0            999 V2000
    9.3759  -10.2247    0.0000 C   0  0  0  0  0  0  0  0  0  0  0  0
    8.6615  -10.6372    0.0000 C   0  0  1  0  0  0  0  0  0  0  0  0
    8.6615  -11.4622    0.0000 C   0  0  1  0  0  0  0  0  0  0  0  0
    9.3759  -11.8747    0.0000 C   0  0  2  0  0  0  0  0  0  0  0  0
   10.0904  -11.4622    0.0000 C   0  0  2  0  0  0  0  0  0  0  0  0
   10.8049  -11.8747    0.0000 C   0  0  0  0  0  0  0  0  0  0  0  0
   11.5193  -11.4622    0.0000 C   0  0  0  0  0  0  0  0  0  0  0  0
   11.5193  -10.6372    0.0000 C   0  0  1  0  0  0  0  0  0  0  0  0
   12.2338  -10.2247    0.0000 C   0  0  2  0  0  0  0  0  0  0  0  0
   12.9483  -10.6372    0.0000 C   0  0  0  0  0  0  0  0  0  0  0  0
   13.6628  -10.2247    0.0000 C   0  0  2  0  0  0  0  0  0  0  0  0
   13.6628   -9.3997    0.0000 C   0  0  1  0  0  0  0  0  0  0  0  0
   14.3772   -8.9872    0.0000 C   0  0  0  0  0  0  0  0  0  0  0  0
   14.3772   -8.1622    0.0000 C   0  0  0  0  0  0  0  0  0  0  0  0
   13.6628   -7.7497    0.0000 C   0  0  0  0  0  0  0  0  0  0  0  0
   12.9483   -8.1622    0.0000 C   0  0  0  0  0  0  0  0  0  0  0  0
   12.9483   -8.9872    0.0000 C   0  0  1  0  0  0  0  0  0  0  0  0
   12.2338   -9.3997    0.0000 C   0  0  0  0  0  0  0  0  0  0  0  0
   11.5193   -8.9872    0.0000 C   0  0  0  0  0  0  0  0  0  0  0  0
   10.8049   -9.3997    0.0000 C   0  0  0  0  0  0  0  0  0  0  0  0
   10.8049  -10.2247    0.0000 C   0  0  2  0  0  0  0  0  0  0  0  0
   10.0904  -10.6372    0.0000 C   0  0  1  0  0  0  0  0  0  0  0  0
    9.7197  -12.6447    0.0000 C   0  0  0  0  0  0  0  0  0  0  0  0
   10.5447  -12.6437    0.0000 O   0  0  0  0  0  0  0  0  0  0  0  0
    9.3080  -13.3597    0.0000 O   0  0  0  0  0  0  0  0  0  0  0  0
   10.0904   -9.8122    0.0000 C   0  0  0  0  0  0  0  0  0  0  0  0
   13.2503   -7.0353    0.0000 C   0  0  0  0  0  0  0  0  0  0  0  0
   14.0753   -7.0353    0.0000 C   0  0  0  0  0  0  0  0  0  0  0  0
   12.2338  -11.0497    0.0000 C   0  0  0  0  0  0  0  0  0  0  0  0
   11.5193   -9.8122    0.0000 C   0  0  0  0  0  0  0  0  0  0  0  0
    8.9502  -12.6035    0.0000 C   0  0  0  0  0  0  0  0  0  0  0  0
    5.0782  -10.2438    0.0000 O   0  0  0  0  0  0  0  0  0  0  0  0
    3.8624   -9.4929    0.0000 O   0  0  0  0  0  0  0  0  0  0  0  0
    4.2535  -10.2193    0.0000 C   0  0  2  0  0  0  0  0  0  0  0  0
    3.8200  -10.9212    0.0000 C   0  0  1  0  0  0  0  0  0  0  0  0
    2.9954  -10.8967    0.0000 C   0  0  2  0  0  0  0  0  0  0  0  0
    2.6043  -10.1703    0.0000 C   0  0  1  0  0  0  0  0  0  0  0  0
    3.0378   -9.4684    0.0000 C   0  0  0  0  0  0  0  0  0  0  0  0
    1.7796  -10.1458    0.0000 O   0  0  0  0  0  0  0  0  0  0  0  0
    2.5618  -11.5987    0.0000 O   0  0  0  0  0  0  0  0  0  0  0  0
    4.2111  -11.6476    0.0000 O   0  0  0  0  0  0  0  0  0  0  0  0
   13.6897  -11.1047    0.0000 O   0  0  0  0  0  0  0  0  0  0  0  0
    7.9470  -10.2247    0.0000 O   0  0  0  0  0  0  0  0  0  0  0  0
   14.3797   -9.8397    0.0000 C   0  0  0  0  0  0  0  0  0  0  0  0
   14.3797  -10.6647    0.0000 O   0  0  0  0  0  0  0  0  0  0  0  0
   15.0941   -9.4272    0.0000 O   0  0  0  0  0  0  0  0  0  0  0  0
   15.8086  -10.6647    0.0000 O   0  0  0  0  0  0  0  0  0  0  0  0
   15.8086   -9.8397    0.0000 C   0  0  2  0  0  0  0  0  0  0  0  0
   16.5231   -9.4272    0.0000 C   0  0  1  0  0  0  0  0  0  0  0  0
   17.2375   -9.8397    0.0000 C   0  0  1  0  0  0  0  0  0  0  0  0
   17.2375  -10.6647    0.0000 C   0  0  1  0  0  0  0  0  0  0  0  0
   16.5231  -11.0772    0.0000 C   0  0  0  0  0  0  0  0  0  0  0  0
   17.9520  -11.0772    0.0000 O   0  0  0  0  0  0  0  0  0  0  0  0
   17.9520   -9.4272    0.0000 O   0  0  0  0  0  0  0  0  0  0  0  0
   16.5231   -8.6022    0.0000 O   0  0  0  0  0  0  0  0  0  0  0  0
   17.9520   -8.6022    0.0000 O   0  0  0  0  0  0  0  0  0  0  0  0
   17.2375   -8.1897    0.0000 C   0  0  2  0  0  0  0  0  0  0  0  0
   17.2375   -7.3647    0.0000 C   0  0  1  0  0  0  0  0  0  0  0  0
   17.9520   -6.9522    0.0000 C   0  0  1  0  0  0  0  0  0  0  0  0
   18.6665   -7.3647    0.0000 C   0  0  2  0  0  0  0  0  0  0  0  0
   18.6665   -8.1897    0.0000 C   0  0  2  0  0  0  0  0  0  0  0  0
   17.9520   -6.1272    0.0000 O   0  0  0  0  0  0  0  0  0  0  0  0
   19.3810   -6.1272    0.0000 O   0  0  0  0  0  0  0  0  0  0  0  0
   18.6665   -5.7147    0.0000 C   0  0  2  0  0  0  0  0  0  0  0  0
   18.6665   -4.8897    0.0000 C   0  0  1  0  0  0  0  0  0  0  0  0
   19.3810   -4.4772    0.0000 C   0  0  2  0  0  0  0  0  0  0  0  0
   20.0954   -4.8897    0.0000 C   0  0  2  0  0  0  0  0  0  0  0  0
   20.0954   -5.7147    0.0000 C   0  0  0  0  0  0  0  0  0  0  0  0
   20.8099   -4.4772    0.0000 O   0  0  0  0  0  0  0  0  0  0  0  0
   19.3810   -3.6522    0.0000 O   0  0  0  0  0  0  0  0  0  0  0  0
   17.9520   -4.4772    0.0000 O   0  0  0  0  0  0  0  0  0  0  0  0
   19.3810   -8.6022    0.0000 C   0  0  0  0  0  0  0  0  0  0  0  0
   19.3810   -6.9522    0.0000 O   0  0  0  0  0  0  0  0  0  0  0  0
   16.5231   -6.9522    0.0000 O   0  0  0  0  0  0  0  0  0  0  0  0
   10.0904  -12.2872    0.0000 H   0  0  0  0  0  0  0  0  0  0  0  0
   12.9483   -9.8122    0.0000 H   0  0  0  0  0  0  0  0  0  0  0  0
   10.8049  -11.0497    0.0000 H   0  0  0  0  0  0  0  0  0  0  0  0
    5.0892  -11.8938    0.0000 O   0  0  0  0  0  0  0  0  0  0  0  0
    5.7844   -9.0016    0.0000 O   0  0  0  0  0  0  0  0  0  0  0  0
    6.5016   -9.4093    0.0000 C   0  0  0  0  0  0  0  0  0  0  0  0
    6.5071  -10.2343    0.0000 C   0  0  2  0  0  0  0  0  0  0  0  0
    5.7954  -10.6515    0.0000 C   0  0  2  0  0  0  0  0  0  0  0  0
    5.8009  -11.4765    0.0000 C   0  0  1  0  0  0  0  0  0  0  0  0
    6.5181  -11.8842    0.0000 C   0  0  0  0  0  0  0  0  0  0  0  0
    7.2298  -11.4670    0.0000 C   0  0  1  0  0  0  0  0  0  0  0  0
    7.2243  -10.6420    0.0000 O   0  0  0  0  0  0  0  0  0  0  0  0
    7.9470  -11.8747    0.0000 O   0  0  0  0  0  0  0  0  0  0  0  0
 85 87  1  1  0  0  0
 83 78  1  1  0  0  0
 81 80  1  1  0  0  0
 80 79  1  0  0  0  0
 82 32  1  6  0  0  0
 86 81  1  0  0  0  0
 82 81  1  0  0  0  0
 83 82  1  0  0  0  0
 84 83  1  0  0  0  0
 85 84  1  0  0  0  0
  1  2  1  0  0  0  0
  2  3  1  0  0  0  0
  3  4  1  0  0  0  0
  4  5  1  0  0  0  0
  5  6  1  0  0  0  0
  6  7  1  0  0  0  0
  7  8  1  0  0  0  0
  8  9  1  0  0  0  0
  9 10  1  0  0  0  0
 10 11  1  0  0  0  0
 11 12  1  0  0  0  0
 12 13  1  0  0  0  0
 13 14  1  0  0  0  0
 14 15  1  0  0  0  0
 15 16  1  0  0  0  0
 16 17  1  0  0  0  0
 12 17  1  0  0  0  0
 17 18  1  0  0  0  0
  9 18  1  0  0  0  0
 18 19  2  0  0  0  0
 19 20  1  0  0  0  0
 20 21  1  0  0  0  0
  8 21  1  0  0  0  0
 21 22  1  0  0  0  0
  5 22  1  0  0  0  0
  1 22  1  0  0  0  0
 23 24  2  0  0  0  0
 23 25  1  0  0  0  0
  4 23  1  6  0  0  0
 22 26  1  1  0  0  0
 15 27  1  0  0  0  0
 15 28  1  0  0  0  0
  9 29  1  6  0  0  0
  8 30  1  1  0  0  0
  4 31  1  1  0  0  0
 86 85  1  0  0  0  0
 33 34  1  0  0  0  0
 34 35  1  0  0  0  0
 35 36  1  0  0  0  0
 36 37  1  0  0  0  0
 37 38  1  0  0  0  0
 33 38  1  0  0  0  0
 37 39  1  6  0  0  0
 36 40  1  1  0  0  0
 35 41  1  6  0  0  0
 34 32  1  1  0  0  0
  3 87  1  1  0  0  0
 11 42  1  6  0  0  0
  2 43  1  1  0  0  0
 44 45  2  0  0  0  0
 47 48  1  0  0  0  0
 48 49  1  0  0  0  0
 49 50  1  0  0  0  0
 50 51  1  0  0  0  0
 51 52  1  0  0  0  0
 47 52  1  0  0  0  0
 51 53  1  6  0  0  0
 50 54  1  6  0  0  0
 56 57  1  0  0  0  0
 57 58  1  0  0  0  0
 58 59  1  0  0  0  0
 59 60  1  0  0  0  0
 60 61  1  0  0  0  0
 56 61  1  0  0  0  0
 63 64  1  0  0  0  0
 64 65  1  0  0  0  0
 65 66  1  0  0  0  0
 66 67  1  0  0  0  0
 67 68  1  0  0  0  0
 63 68  1  0  0  0  0
 67 69  1  1  0  0  0
 66 70  1  1  0  0  0
 65 71  1  6  0  0  0
 64 62  1  1  0  0  0
 59 62  1  6  0  0  0
 61 72  1  6  0  0  0
 60 73  1  1  0  0  0
 58 74  1  6  0  0  0
 57 55  1  1  0  0  0
 49 55  1  6  0  0  0
 48 46  1  1  0  0  0
 44 46  1  0  0  0  0
 12 44  1  1  0  0  0
  5 75  1  6  0  0  0
 17 76  1  1  0  0  0
 21 77  1  6  0  0  0
M  END
>  <cdx:fragmentId>
5

$$$$
