98268.cdx
  Mrv1902 05222410192D          

 40 44  0  0  0  0            999 V2000
    3.6382  -11.4721    0.0000 C   0  0  1  0  0  0  0  0  0  0  0  0
    3.6382  -10.6471    0.0000 C   0  0  2  0  0  0  0  0  0  0  0  0
    4.3527  -10.2346    0.0000 C   0  0  0  0  0  0  0  0  0  0  0  0
    4.3527  -11.8846    0.0000 C   0  0  0  0  0  0  0  0  0  0  0  0
    5.0672  -11.4721    0.0000 C   0  0  1  0  0  0  0  0  0  0  0  0
    5.7816  -11.8846    0.0000 C   0  0  0  0  0  0  0  0  0  0  0  0
    6.4961  -11.4721    0.0000 C   0  0  0  0  0  0  0  0  0  0  0  0
    6.4961  -10.6471    0.0000 C   0  0  0  0  0  0  0  0  0  0  0  0
    7.2106  -10.2346    0.0000 C   0  0  2  0  0  0  0  0  0  0  0  0
    7.9952  -10.4895    0.0000 C   0  0  0  0  0  0  0  0  0  0  0  0
    8.4801   -9.8221    0.0000 C   0  0  0  0  0  0  0  0  0  0  0  0
    7.9952   -9.1546    0.0000 C   0  0  1  0  0  0  0  0  0  0  0  0
    7.2106   -9.4096    0.0000 C   0  0  2  0  0  0  0  0  0  0  0  0
    7.2106   -8.5846    0.0000 C   0  0  0  0  0  0  0  0  0  0  0  0
    6.4961   -8.9971    0.0000 C   0  0  0  0  0  0  0  0  0  0  0  0
    5.7816   -9.4096    0.0000 C   0  0  0  0  0  0  0  0  0  0  0  0
    5.7816  -10.2346    0.0000 C   0  0  2  0  0  0  0  0  0  0  0  0
    5.0672  -10.6471    0.0000 C   0  0  1  0  0  0  0  0  0  0  0  0
    5.0672   -9.8221    0.0000 C   0  0  0  0  0  0  0  0  0  0  0  0
    5.7816  -12.7096    0.0000 O   0  0  0  0  0  0  0  0  0  0  0  0
    7.2106  -11.0596    0.0000 O   0  0  0  0  0  0  0  0  0  0  0  0
    2.9237  -11.8846    0.0000 O   0  0  0  0  0  0  0  0  0  0  0  0
    2.9237  -10.2346    0.0000 O   0  0  0  0  0  0  0  0  0  0  0  0
    8.1758   -8.4453    0.0000 C   0  0  1  0  0  0  0  0  0  0  0  0
    7.4613   -8.0328    0.0000 O   0  0  0  0  0  0  0  0  0  0  0  0
    8.3407   -7.7321    0.0000 C   0  0  1  0  0  0  0  0  0  0  0  0
    9.2823   -7.3006    0.0000 C   0  0  0  0  0  0  0  0  0  0  0  0
    9.3794   -6.2694    0.0000 C   0  0  0  0  0  0  0  0  0  0  0  0
   10.3210   -5.8379    0.0000 C   0  0  1  0  0  0  0  0  0  0  0  0
   10.4181   -4.8067    0.0000 C   0  0  0  0  0  0  0  0  0  0  0  0
   11.3597   -4.3752    0.0000 O   0  0  0  0  0  0  0  0  0  0  0  0
    7.4613   -8.8578    0.0000 C   0  0  0  0  0  0  0  0  0  0  0  0
    5.0672  -12.2971    0.0000 H   0  0  0  0  0  0  0  0  0  0  0  0
    5.7816  -11.0596    0.0000 H   0  0  0  0  0  0  0  0  0  0  0  0
    8.8202   -9.1546    0.0000 H   0  0  0  0  0  0  0  0  0  0  0  0
   10.9936   -6.3155    0.0000 C   0  0  0  0  0  0  0  0  0  0  0  0
    7.7014   -7.2106    0.0000 O   0  0  0  0  0  0  0  0  0  0  0  0
    6.9301   -7.5036    0.0000 C   0  0  0  0  0  0  0  0  0  0  0  0
    6.1333   -7.7171    0.0000 C   0  0  0  0  0  0  0  0  0  0  0  0
    6.5176   -6.7891    0.0000 C   0  0  0  0  0  0  0  0  0  0  0  0
  1  2  1  0  0  0  0
  2  3  1  0  0  0  0
  1  4  1  0  0  0  0
  4  5  1  0  0  0  0
  5  6  1  0  0  0  0
  6  7  1  0  0  0  0
  7  8  2  0  0  0  0
  8  9  1  0  0  0  0
  9 10  1  0  0  0  0
 10 11  1  0  0  0  0
 11 12  1  0  0  0  0
 12 13  1  0  0  0  0
  9 13  1  0  0  0  0
 13 14  1  1  0  0  0
 13 15  1  0  0  0  0
 15 16  1  0  0  0  0
 16 17  1  0  0  0  0
  8 17  1  0  0  0  0
 17 18  1  0  0  0  0
  3 18  1  0  0  0  0
  5 18  1  0  0  0  0
 18 19  1  1  0  0  0
  6 20  2  0  0  0  0
  9 21  1  6  0  0  0
  1 22  1  1  0  0  0
  2 23  1  1  0  0  0
 12 24  1  0  0  0  0
 24 25  1  1  0  0  0
 24 26  1  0  0  0  0
 26 27  1  0  0  0  0
 27 28  1  0  0  0  0
 28 29  1  0  0  0  0
 29 30  1  0  0  0  0
 30 31  1  0  0  0  0
 24 32  1  0  0  0  0
  5 33  1  1  0  0  0
 17 34  1  6  0  0  0
 12 35  1  6  0  0  0
 29 36  1  1  0  0  0
 26 37  1  6  0  0  0
 37 38  1  0  0  0  0
 38 25  1  0  0  0  0
 38 39  1  0  0  0  0
 38 40  1  0  0  0  0
M  END
>  <cdx:fragmentId>
7524

$$$$
