98269.cdx
  Mrv1902 05222410192D          

 48 48  0  0  0  0            999 V2000
    6.7696   -8.2904    0.0000 O   0  0  0  0  0  0  0  0  0  0  0  0
    7.5942   -8.2904    0.0000 O   0  0  0  0  0  0  0  0  0  0  0  0
    8.3088   -7.8781    0.0000 O   0  0  0  0  0  0  0  0  0  0  0  0
    8.7210   -7.1635    0.0000 O   0  0  0  0  0  0  0  0  0  0  0  0
    8.7210   -6.3390    0.0000 O   0  0  0  0  0  0  0  0  0  0  0  0
    8.3088   -5.6244    0.0000 O   0  0  0  0  0  0  0  0  0  0  0  0
    7.5942   -5.2121    0.0000 O   0  0  0  0  0  0  0  0  0  0  0  0
    6.7696   -5.2121    0.0000 O   0  0  0  0  0  0  0  0  0  0  0  0
    6.0550   -5.6244    0.0000 O   0  0  0  0  0  0  0  0  0  0  0  0
    5.6428   -6.3390    0.0000 O   0  0  0  0  0  0  0  0  0  0  0  0
    5.6428   -7.1635    0.0000 O   0  0  0  0  0  0  0  0  0  0  0  0
    6.0550   -7.8781    0.0000 O   0  0  0  0  0  0  0  0  0  0  0  0
    6.0550   -4.7994    0.0000 Si  0  0  0  0  0  0  0  0  0  0  0  0
    7.1819   -4.4980    0.0000 Si  0  0  0  0  0  0  0  0  0  0  0  0
    8.3088   -4.7994    0.0000 Si  0  0  0  0  0  0  0  0  0  0  0  0
    9.1338   -5.6244    0.0000 Si  0  0  0  0  0  0  0  0  0  0  0  0
    9.4351   -6.7512    0.0000 Si  0  0  0  0  0  0  0  0  0  0  0  0
    9.1338   -7.8781    0.0000 Si  0  0  0  0  0  0  0  0  0  0  0  0
    8.3088   -8.7031    0.0000 Si  0  0  0  0  0  0  0  0  0  0  0  0
    7.1819   -9.0045    0.0000 Si  0  0  0  0  0  0  0  0  0  0  0  0
    6.0550   -8.7031    0.0000 Si  0  0  0  0  0  0  0  0  0  0  0  0
    5.2300   -7.8781    0.0000 Si  0  0  0  0  0  0  0  0  0  0  0  0
    4.9287   -6.7512    0.0000 Si  0  0  0  0  0  0  0  0  0  0  0  0
    5.2300   -5.6244    0.0000 Si  0  0  0  0  0  0  0  0  0  0  0  0
    5.3406   -4.3869    0.0000 C   0  0  0  0  0  0  0  0  0  0  0  0
    6.0550   -3.9744    0.0000 C   0  0  0  0  0  0  0  0  0  0  0  0
    6.7694   -3.7836    0.0000 C   0  0  0  0  0  0  0  0  0  0  0  0
    7.5944   -3.7836    0.0000 C   0  0  0  0  0  0  0  0  0  0  0  0
    8.3088   -3.9744    0.0000 C   0  0  0  0  0  0  0  0  0  0  0  0
    9.0232   -4.3869    0.0000 C   0  0  0  0  0  0  0  0  0  0  0  0
    9.9588   -5.6244    0.0000 C   0  0  0  0  0  0  0  0  0  0  0  0
    9.5463   -4.9099    0.0000 C   0  0  0  0  0  0  0  0  0  0  0  0
   10.1496   -7.1638    0.0000 C   0  0  0  0  0  0  0  0  0  0  0  0
   10.1496   -6.3388    0.0000 C   0  0  0  0  0  0  0  0  0  0  0  0
    9.5463   -8.5926    0.0000 C   0  0  0  0  0  0  0  0  0  0  0  0
    9.9588   -7.8781    0.0000 C   0  0  0  0  0  0  0  0  0  0  0  0
    8.3088   -9.5281    0.0000 C   0  0  0  0  0  0  0  0  0  0  0  0
    8.8921   -9.2865    0.0000 C   0  0  0  0  0  0  0  0  0  0  0  0
    6.9684   -9.8014    0.0000 C   0  0  0  0  0  0  0  0  0  0  0  0
    7.5944   -9.7189    0.0000 C   0  0  0  0  0  0  0  0  0  0  0  0
    5.3406   -9.1156    0.0000 C   0  0  0  0  0  0  0  0  0  0  0  0
    6.0550   -9.5281    0.0000 C   0  0  0  0  0  0  0  0  0  0  0  0
    4.4050   -7.8781    0.0000 C   0  0  0  0  0  0  0  0  0  0  0  0
    4.8175   -8.5926    0.0000 C   0  0  0  0  0  0  0  0  0  0  0  0
    4.2142   -7.1638    0.0000 C   0  0  0  0  0  0  0  0  0  0  0  0
    4.2142   -6.3388    0.0000 C   0  0  0  0  0  0  0  0  0  0  0  0
    4.6467   -5.0410    0.0000 C   0  0  0  0  0  0  0  0  0  0  0  0
    4.4050   -5.6244    0.0000 C   0  0  0  0  0  0  0  0  0  0  0  0
  8 13  1  0  0  0  0
 13  9  1  0  0  0  0
  7 14  1  0  0  0  0
 14  8  1  0  0  0  0
  6 15  1  0  0  0  0
 15  7  1  0  0  0  0
  5 16  1  0  0  0  0
 16  6  1  0  0  0  0
  4 17  1  0  0  0  0
 17  5  1  0  0  0  0
  3 18  1  0  0  0  0
 18  4  1  0  0  0  0
  2 19  1  0  0  0  0
 19  3  1  0  0  0  0
  1 20  1  0  0  0  0
 20  2  1  0  0  0  0
 12 21  1  0  0  0  0
 21  1  1  0  0  0  0
 11 22  1  0  0  0  0
 22 12  1  0  0  0  0
 10 23  1  0  0  0  0
 23 11  1  0  0  0  0
  9 24  1  0  0  0  0
 24 10  1  0  0  0  0
 13 25  1  0  0  0  0
 13 26  1  0  0  0  0
 14 27  1  0  0  0  0
 14 28  1  0  0  0  0
 15 29  1  0  0  0  0
 15 30  1  0  0  0  0
 16 31  1  0  0  0  0
 16 32  1  0  0  0  0
 17 33  1  0  0  0  0
 17 34  1  0  0  0  0
 18 35  1  0  0  0  0
 18 36  1  0  0  0  0
 19 37  1  0  0  0  0
 19 38  1  0  0  0  0
 20 39  1  0  0  0  0
 20 40  1  0  0  0  0
 21 41  1  0  0  0  0
 21 42  1  0  0  0  0
 22 43  1  0  0  0  0
 22 44  1  0  0  0  0
 23 45  1  0  0  0  0
 23 46  1  0  0  0  0
 24 47  1  0  0  0  0
 24 48  1  0  0  0  0
M  END
>  <cdx:groupId>
747

>  <cdx:fragmentId>
748

$$$$
