98271.cdx
  Mrv1902 05222410272D          

 38 41  0  0  0  0            999 V2000
    7.5529   -7.5822    0.0000 C   0  0  0  0  0  0  0  0  0  0  0  0
    7.5529   -8.4072    0.0000 C   0  0  0  0  0  0  0  0  0  0  0  0
    6.8384   -8.8197    0.0000 C   0  0  0  0  0  0  0  0  0  0  0  0
    6.8384   -9.6447    0.0000 O   0  0  0  0  0  0  0  0  0  0  0  0
    6.1239   -8.4072    0.0000 C   0  0  0  0  0  0  0  0  0  0  0  0
    5.4095   -8.8197    0.0000 C   0  0  0  0  0  0  0  0  0  0  0  0
    5.4095   -9.6447    0.0000 O   0  0  0  0  0  0  0  0  0  0  0  0
    4.6950   -8.4072    0.0000 C   0  0  0  0  0  0  0  0  0  0  0  0
    4.6950   -7.5822    0.0000 C   0  0  0  0  0  0  0  0  0  0  0  0
    3.9805   -7.1697    0.0000 O   0  0  0  0  0  0  0  0  0  0  0  0
    5.4095   -7.1697    0.0000 C   0  0  0  0  0  0  0  0  0  0  0  0
    6.1239   -7.5822    0.0000 C   0  0  0  0  0  0  0  0  0  0  0  0
    6.8384   -7.1697    0.0000 O   0  0  0  0  0  0  0  0  0  0  0  0
    8.2674   -7.1697    0.0000 C   0  0  0  0  0  0  0  0  0  0  0  0
    8.9818   -7.5822    0.0000 C   0  0  0  0  0  0  0  0  0  0  0  0
    9.6963   -7.1697    0.0000 C   0  0  0  0  0  0  0  0  0  0  0  0
   10.4108   -7.5822    0.0000 O   0  0  0  0  0  0  0  0  0  0  0  0
    9.6963   -6.3447    0.0000 C   0  0  0  0  0  0  0  0  0  0  0  0
   10.4108   -5.9322    0.0000 O   0  0  0  0  0  0  0  0  0  0  0  0
    8.9818   -5.9322    0.0000 C   0  0  0  0  0  0  0  0  0  0  0  0
    8.2674   -6.3447    0.0000 C   0  0  0  0  0  0  0  0  0  0  0  0
    5.4095   -6.3447    0.0000 C   0  0  0  0  0  0  0  0  0  0  0  0
    4.6950   -5.9322    0.0000 C   0  0  0  0  0  0  0  0  0  0  0  0
    4.6950   -5.1072    0.0000 C   0  0  0  0  0  0  0  0  0  0  0  0
    5.4095   -4.6947    0.0000 C   0  0  0  0  0  0  0  0  0  0  0  0
    3.9805   -4.6947    0.0000 C   0  0  0  0  0  0  0  0  0  0  0  0
    8.2674   -8.8197    0.0000 O   0  0  0  0  0  0  0  0  0  0  0  0
    8.2674   -9.6447    0.0000 C   0  0  0  0  0  0  0  0  0  0  0  0
    8.9818  -10.0572    0.0000 C   0  0  2  0  0  0  0  0  0  0  0  0
    9.6963   -9.6447    0.0000 O   0  0  0  0  0  0  0  0  0  0  0  0
    8.9818  -10.8822    0.0000 C   0  0  1  0  0  0  0  0  0  0  0  0
    9.6963  -11.2947    0.0000 O   0  0  0  0  0  0  0  0  0  0  0  0
    8.2674  -11.2947    0.0000 C   0  0  2  0  0  0  0  0  0  0  0  0
    8.2674  -12.1197    0.0000 O   0  0  0  0  0  0  0  0  0  0  0  0
    7.5529  -10.8822    0.0000 C   0  0  2  0  0  0  0  0  0  0  0  0
    7.5529  -10.0572    0.0000 O   0  0  0  0  0  0  0  0  0  0  0  0
    6.8384  -11.2947    0.0000 C   0  0  0  0  0  0  0  0  0  0  0  0
    6.1239  -10.8822    0.0000 O   0  0  0  0  0  0  0  0  0  0  0  0
  1  2  2  0  0  0  0
  2  3  1  0  0  0  0
  3  4  2  0  0  0  0
  3  5  1  0  0  0  0
  5  6  1  0  0  0  0
  6  7  1  0  0  0  0
  6  8  2  0  0  0  0
  8  9  1  0  0  0  0
  9 10  1  0  0  0  0
  9 11  2  0  0  0  0
 11 12  1  0  0  0  0
  5 12  2  0  0  0  0
 12 13  1  0  0  0  0
  1 13  1  0  0  0  0
  1 14  1  0  0  0  0
 14 15  1  0  0  0  0
 15 16  2  0  0  0  0
 16 17  1  0  0  0  0
 16 18  1  0  0  0  0
 18 19  1  0  0  0  0
 18 20  2  0  0  0  0
 20 21  1  0  0  0  0
 14 21  2  0  0  0  0
 22 23  1  0  0  0  0
 23 24  2  0  0  0  0
 24 25  1  0  0  0  0
 24 26  1  0  0  0  0
 11 22  1  0  0  0  0
 27 28  1  0  0  0  0
 28 29  1  0  0  0  0
 29 30  1  6  0  0  0
 29 31  1  0  0  0  0
 31 32  1  1  0  0  0
 31 33  1  0  0  0  0
 33 34  1  6  0  0  0
 33 35  1  0  0  0  0
 35 36  1  0  0  0  0
 35 37  1  1  0  0  0
 37 38  1  0  0  0  0
 28 36  1  0  0  0  0
  2 27  1  0  0  0  0
M  END
>  <cdx:fragmentId>
5

$$$$
