98274.cdx
  Mrv1902 05222410272D          

 39 43  0  0  0  0            999 V2000
   10.4411   -3.4932    0.0000 C   0  0  0  0  0  0  0  0  0  0  0  0
    5.5647  -10.7123    0.0000 O   0  0  0  0  0  0  0  0  0  0  0  0
    6.0121  -11.4055    0.0000 C   0  0  2  0  0  0  0  0  0  0  0  0
    5.6354  -12.1395    0.0000 O   0  0  0  0  0  0  0  0  0  0  0  0
    6.0828  -12.8327    0.0000 C   0  0  1  0  0  0  0  0  0  0  0  0
    6.9068  -12.7919    0.0000 C   0  0  2  0  0  0  0  0  0  0  0  0
    7.2834  -12.0579    0.0000 C   0  0  1  0  0  0  0  0  0  0  0  0
    6.8361  -11.3647    0.0000 C   0  0  1  0  0  0  0  0  0  0  0  0
    5.7061  -13.5667    0.0000 C   0  0  0  0  0  0  0  0  0  0  0  0
    8.1074  -12.0171    0.0000 O   0  0  0  0  0  0  0  0  0  0  0  0
    7.3541  -13.4851    0.0000 O   0  0  0  0  0  0  0  0  0  0  0  0
    7.2127  -10.6307    0.0000 O   0  0  0  0  0  0  0  0  0  0  0  0
    6.1535  -14.2599    0.0000 O   0  0  0  0  0  0  0  0  0  0  0  0
    8.8652   -3.8592    0.0000 C   0  0  0  0  0  0  0  0  0  0  0  0
    9.4220   -4.4679    0.0000 C   0  0  0  0  0  0  0  0  0  0  0  0
    9.1732   -5.2545    0.0000 C   0  0  0  0  0  0  0  0  0  0  0  0
    8.3676   -5.4323    0.0000 C   0  0  0  0  0  0  0  0  0  0  0  0
    7.8108   -4.8236    0.0000 C   0  0  0  0  0  0  0  0  0  0  0  0
    8.0596   -4.0370    0.0000 C   0  0  0  0  0  0  0  0  0  0  0  0
    9.1140   -3.0726    0.0000 O   0  0  0  0  0  0  0  0  0  0  0  0
   10.2276   -4.2901    0.0000 O   0  0  0  0  0  0  0  0  0  0  0  0
    8.6089   -6.8826    0.0000 O   0  0  0  0  0  0  0  0  0  0  0  0
    8.1292   -7.5538    0.0000 C   0  0  0  0  0  0  0  0  0  0  0  0
    7.3426   -7.3049    0.0000 C   0  0  1  0  0  0  0  0  0  0  0  0
    7.3362   -6.4800    0.0000 C   0  0  1  0  0  0  0  0  0  0  0  0
    8.1188   -6.2189    0.0000 C   0  0  1  0  0  0  0  0  0  0  0  0
    6.0699   -6.9024    0.0000 O   0  0  0  0  0  0  0  0  0  0  0  0
    6.5600   -7.5660    0.0000 C   0  0  2  0  0  0  0  0  0  0  0  0
    6.5496   -6.2312    0.0000 C   0  0  0  0  0  0  0  0  0  0  0  0
    6.3112   -8.3526    0.0000 C   0  0  0  0  0  0  0  0  0  0  0  0
    5.5056   -8.5304    0.0000 C   0  0  0  0  0  0  0  0  0  0  0  0
    5.2568   -9.3170    0.0000 C   0  0  0  0  0  0  0  0  0  0  0  0
    5.8136   -9.9258    0.0000 C   0  0  0  0  0  0  0  0  0  0  0  0
    6.6192   -9.7479    0.0000 C   0  0  0  0  0  0  0  0  0  0  0  0
    6.8680   -8.9614    0.0000 C   0  0  0  0  0  0  0  0  0  0  0  0
    4.4511   -9.4948    0.0000 O   0  0  0  0  0  0  0  0  0  0  0  0
    3.8943   -8.8860    0.0000 C   0  0  0  0  0  0  0  0  0  0  0  0
    7.3297   -5.6550    0.0000 O   0  0  0  0  0  0  0  0  0  0  0  0
    7.3490   -8.1299    0.0000 O   0  0  0  0  0  0  0  0  0  0  0  0
 21  1  1  0  0  0  0
  3  2  1  1  0  0  0
  3  4  1  0  0  0  0
  4  5  1  0  0  0  0
  5  6  1  0  0  0  0
  6  7  1  0  0  0  0
  7  8  1  0  0  0  0
  8  3  1  0  0  0  0
  5  9  1  1  0  0  0
  7 10  1  1  0  0  0
  6 11  1  6  0  0  0
  8 12  1  6  0  0  0
  9 13  1  0  0  0  0
 14 15  1  0  0  0  0
 15 16  2  0  0  0  0
 16 17  1  0  0  0  0
 17 18  2  0  0  0  0
 18 19  1  0  0  0  0
 14 19  2  0  0  0  0
 14 20  1  0  0  0  0
 15 21  1  0  0  0  0
 22 23  1  0  0  0  0
 23 24  1  0  0  0  0
 24 25  1  0  0  0  0
 25 26  1  0  0  0  0
 22 26  1  0  0  0  0
 27 28  1  0  0  0  0
 27 29  1  0  0  0  0
 28 24  1  0  0  0  0
 29 25  1  0  0  0  0
 30 31  1  0  0  0  0
 31 32  2  0  0  0  0
 32 33  1  0  0  0  0
 33 34  2  0  0  0  0
 34 35  1  0  0  0  0
 30 35  2  0  0  0  0
 36 37  1  0  0  0  0
 32 36  1  0  0  0  0
 33  2  1  0  0  0  0
 28 30  1  1  0  0  0
 26 17  1  1  0  0  0
 25 38  1  1  0  0  0
 24 39  1  1  0  0  0
M  END
>  <cdx:fragmentId>
39

$$$$
