98273.cdx
  Mrv1902 05222410262D          

 41 45  0  0  0  0            999 V2000
    8.9011   -6.0920    0.0000 O   0  0  0  0  0  0  0  0  0  0  0  0
    9.6093   -5.6688    0.0000 C   0  0  2  0  0  0  0  0  0  0  0  0
   10.3298   -6.0705    0.0000 O   0  0  0  0  0  0  0  0  0  0  0  0
   11.0380   -5.6473    0.0000 C   0  0  1  0  0  0  0  0  0  0  0  0
   11.0256   -4.8224    0.0000 C   0  0  2  0  0  0  0  0  0  0  0  0
   10.3051   -4.4207    0.0000 C   0  0  1  0  0  0  0  0  0  0  0  0
    9.5969   -4.8439    0.0000 C   0  0  1  0  0  0  0  0  0  0  0  0
   11.7586   -6.0490    0.0000 C   0  0  0  0  0  0  0  0  0  0  0  0
   10.2927   -3.5958    0.0000 O   0  0  0  0  0  0  0  0  0  0  0  0
   11.7338   -4.3992    0.0000 O   0  0  0  0  0  0  0  0  0  0  0  0
    8.8763   -4.4421    0.0000 O   0  0  0  0  0  0  0  0  0  0  0  0
   12.4668   -5.6258    0.0000 O   0  0  0  0  0  0  0  0  0  0  0  0
    7.5466   -5.6368    0.0000 C   0  0  0  0  0  0  0  0  0  0  0  0
    7.2838   -6.4188    0.0000 O   0  0  0  0  0  0  0  0  0  0  0  0
    7.6583  -13.3276    0.0000 C   0  0  0  0  0  0  0  0  0  0  0  0
    6.8334  -13.3404    0.0000 O   0  0  0  0  0  0  0  0  0  0  0  0
    8.6383   -6.8740    0.0000 C   0  0  0  0  0  0  0  0  0  0  0  0
    9.1841   -7.4926    0.0000 C   0  0  0  0  0  0  0  0  0  0  0  0
    8.9213   -8.2746    0.0000 C   0  0  0  0  0  0  0  0  0  0  0  0
    8.1127   -8.4380    0.0000 C   0  0  0  0  0  0  0  0  0  0  0  0
    7.5668   -7.8194    0.0000 C   0  0  0  0  0  0  0  0  0  0  0  0
    7.8296   -7.0374    0.0000 C   0  0  0  0  0  0  0  0  0  0  0  0
    8.3281   -9.8923    0.0000 O   0  0  0  0  0  0  0  0  0  0  0  0
    7.8365  -10.5549    0.0000 C   0  0  0  0  0  0  0  0  0  0  0  0
    7.0544  -10.2921    0.0000 C   0  0  1  0  0  0  0  0  0  0  0  0
    7.0627   -9.4671    0.0000 C   0  0  1  0  0  0  0  0  0  0  0  0
    7.8499   -9.2201    0.0000 C   0  0  1  0  0  0  0  0  0  0  0  0
    5.7891   -9.8668    0.0000 O   0  0  0  0  0  0  0  0  0  0  0  0
    6.2673  -10.5391    0.0000 C   0  0  2  0  0  0  0  0  0  0  0  0
    6.2807   -9.2043    0.0000 C   0  0  0  0  0  0  0  0  0  0  0  0
    6.0045  -11.3211    0.0000 C   0  0  0  0  0  0  0  0  0  0  0  0
    5.1958  -11.4846    0.0000 C   0  0  0  0  0  0  0  0  0  0  0  0
    4.9330  -12.2666    0.0000 C   0  0  0  0  0  0  0  0  0  0  0  0
    5.4789  -12.8852    0.0000 C   0  0  0  0  0  0  0  0  0  0  0  0
    6.2875  -12.7218    0.0000 C   0  0  0  0  0  0  0  0  0  0  0  0
    6.5503  -11.9397    0.0000 C   0  0  0  0  0  0  0  0  0  0  0  0
    4.1244  -12.4300    0.0000 O   0  0  0  0  0  0  0  0  0  0  0  0
    3.5785  -11.8114    0.0000 C   0  0  0  0  0  0  0  0  0  0  0  0
    5.2161  -13.6672    0.0000 O   0  0  0  0  0  0  0  0  0  0  0  0
    7.0710   -8.6421    0.0000 O   0  0  0  0  0  0  0  0  0  0  0  0
    7.0462  -11.1170    0.0000 H   0  0  0  0  0  0  0  0  0  0  0  0
  2  1  1  1  0  0  0
  2  3  1  0  0  0  0
  3  4  1  0  0  0  0
  4  5  1  0  0  0  0
  5  6  1  0  0  0  0
  6  7  1  0  0  0  0
  7  2  1  0  0  0  0
  4  8  1  1  0  0  0
  6  9  1  1  0  0  0
  5 10  1  6  0  0  0
  7 11  1  6  0  0  0
 14 13  1  0  0  0  0
 22 14  1  0  0  0  0
 16 15  1  0  0  0  0
 35 16  1  0  0  0  0
  8 12  1  0  0  0  0
 17 18  1  0  0  0  0
 18 19  2  0  0  0  0
 19 20  1  0  0  0  0
 20 21  2  0  0  0  0
 21 22  1  0  0  0  0
 17 22  2  0  0  0  0
 17  1  1  0  0  0  0
 23 24  1  0  0  0  0
 24 25  1  0  0  0  0
 25 26  1  0  0  0  0
 26 27  1  0  0  0  0
 23 27  1  0  0  0  0
 28 29  1  0  0  0  0
 28 30  1  0  0  0  0
 29 25  1  0  0  0  0
 30 26  1  0  0  0  0
 31 32  1  0  0  0  0
 32 33  2  0  0  0  0
 33 34  1  0  0  0  0
 34 35  2  0  0  0  0
 35 36  1  0  0  0  0
 31 36  2  0  0  0  0
 37 38  1  0  0  0  0
 33 37  1  0  0  0  0
 34 39  1  0  0  0  0
 29 31  1  1  0  0  0
 27 20  1  1  0  0  0
 26 40  1  1  0  0  0
 25 41  1  1  0  0  0
M  END
>  <cdx:fragmentId>
39

$$$$
