98270.cdx
  Mrv1902 05222410272D          

 27 29  0  0  0  0            999 V2000
    6.6305   -8.2585    0.0000 C   0  0  0  0  0  0  0  0  0  0  0  0
    6.6305   -9.0835    0.0000 C   0  0  0  0  0  0  0  0  0  0  0  0
    7.3450   -9.4960    0.0000 O   0  0  0  0  0  0  0  0  0  0  0  0
    5.9160   -9.4960    0.0000 C   0  0  0  0  0  0  0  0  0  0  0  0
    5.9160  -10.3210    0.0000 O   0  0  0  0  0  0  0  0  0  0  0  0
    5.2016   -9.0835    0.0000 C   0  0  0  0  0  0  0  0  0  0  0  0
    4.4871   -9.4960    0.0000 C   0  0  0  0  0  0  0  0  0  0  0  0
    4.4871  -10.3210    0.0000 O   0  0  0  0  0  0  0  0  0  0  0  0
    3.7726   -9.0835    0.0000 C   0  0  0  0  0  0  0  0  0  0  0  0
    3.7726   -8.2585    0.0000 C   0  0  0  0  0  0  0  0  0  0  0  0
    3.0582   -7.8460    0.0000 O   0  0  0  0  0  0  0  0  0  0  0  0
    4.4871   -7.8460    0.0000 C   0  0  0  0  0  0  0  0  0  0  0  0
    5.2016   -8.2585    0.0000 C   0  0  0  0  0  0  0  0  0  0  0  0
    5.9160   -7.8460    0.0000 O   0  0  0  0  0  0  0  0  0  0  0  0
    7.3450   -7.8460    0.0000 C   0  0  0  0  0  0  0  0  0  0  0  0
    8.0595   -8.2585    0.0000 C   0  0  0  0  0  0  0  0  0  0  0  0
    8.7739   -7.8460    0.0000 C   0  0  0  0  0  0  0  0  0  0  0  0
    8.7739   -7.0210    0.0000 C   0  0  0  0  0  0  0  0  0  0  0  0
    9.4884   -6.6085    0.0000 O   0  0  0  0  0  0  0  0  0  0  0  0
    8.0595   -6.6085    0.0000 C   0  0  0  0  0  0  0  0  0  0  0  0
    7.3450   -7.0210    0.0000 C   0  0  0  0  0  0  0  0  0  0  0  0
    9.4884   -8.2585    0.0000 C   0  0  0  0  0  0  0  0  0  0  0  0
   10.2029   -7.8460    0.0000 C   0  0  0  0  0  0  0  0  0  0  0  0
   10.9173   -8.2585    0.0000 C   0  0  0  0  0  0  0  0  0  0  0  0
   10.9173   -9.0835    0.0000 C   0  0  0  0  0  0  0  0  0  0  0  0
   11.6318   -7.8460    0.0000 C   0  0  0  0  0  0  0  0  0  0  0  0
    8.0595   -9.0835    0.0000 C   0  0  0  0  0  0  0  0  0  0  0  0
  1  2  2  0  0  0  0
  2  3  1  0  0  0  0
  2  4  1  0  0  0  0
  4  5  2  0  0  0  0
  4  6  1  0  0  0  0
  6  7  1  0  0  0  0
  7  8  1  0  0  0  0
  7  9  2  0  0  0  0
  9 10  1  0  0  0  0
 10 11  1  0  0  0  0
 10 12  2  0  0  0  0
 12 13  1  0  0  0  0
  6 13  2  0  0  0  0
 13 14  1  0  0  0  0
  1 14  1  0  0  0  0
  1 15  1  0  0  0  0
 15 16  1  0  0  0  0
 16 17  2  0  0  0  0
 17 18  1  0  0  0  0
 18 19  1  0  0  0  0
 18 20  2  0  0  0  0
 20 21  1  0  0  0  0
 15 21  2  0  0  0  0
 22 23  1  0  0  0  0
 23 24  2  0  0  0  0
 24 25  1  0  0  0  0
 24 26  1  0  0  0  0
 17 22  1  0  0  0  0
  3 27  1  0  0  0  0
M  END
>  <cdx:fragmentId>
5

$$$$
