98278.cdx
  Mrv1902 05222410192D          

 25 26  0  0  0  0            999 V2000
    7.4035   -8.0522    0.0000 C   0  0  0  0  0  0  0  0  0  0  0  0
    8.1180   -8.4647    0.0000 C   0  0  0  0  0  0  0  0  0  0  0  0
    8.8325   -8.0522    0.0000 C   0  0  0  0  0  0  0  0  0  0  0  0
    7.4035   -7.2272    0.0000 O   0  0  0  0  0  0  0  0  0  0  0  0
    9.5470   -8.4647    0.0000 C   0  0  0  0  0  0  0  0  0  0  0  0
   10.2614   -8.0522    0.0000 C   0  0  0  0  0  0  0  0  0  0  0  0
   10.9759   -8.4647    0.0000 C   0  0  0  0  0  0  0  0  0  0  0  0
   10.9759   -9.2897    0.0000 C   0  0  0  0  0  0  0  0  0  0  0  0
   10.2614   -9.7022    0.0000 C   0  0  0  0  0  0  0  0  0  0  0  0
    9.5470   -9.2897    0.0000 C   0  0  0  0  0  0  0  0  0  0  0  0
   11.6904   -9.7022    0.0000 O   0  0  0  0  0  0  0  0  0  0  0  0
    6.6891   -8.4647    0.0000 C   0  0  0  0  0  0  0  0  0  0  0  0
    6.6891   -9.2897    0.0000 C   0  0  0  0  0  0  0  0  0  0  0  0
    5.9746   -9.7022    0.0000 C   0  0  0  0  0  0  0  0  0  0  0  0
    5.2601   -9.2897    0.0000 C   0  0  0  0  0  0  0  0  0  0  0  0
    5.2601   -8.4647    0.0000 C   0  0  0  0  0  0  0  0  0  0  0  0
    5.9746   -8.0522    0.0000 C   0  0  0  0  0  0  0  0  0  0  0  0
    4.5457   -8.0522    0.0000 C   0  0  0  0  0  0  0  0  0  0  0  0
    3.8312   -8.4647    0.0000 C   0  0  0  0  0  0  0  0  0  0  0  0
    3.1167   -8.0522    0.0000 C   0  0  0  0  0  0  0  0  0  0  0  0
    3.1167   -7.2272    0.0000 C   0  0  0  0  0  0  0  0  0  0  0  0
    2.4023   -8.4647    0.0000 C   0  0  0  0  0  0  0  0  0  0  0  0
    4.5457   -9.7022    0.0000 O   0  0  0  0  0  0  0  0  0  0  0  0
    3.8312   -9.2897    0.0000 C   0  0  0  0  0  0  0  0  0  0  0  0
    7.4035   -9.7022    0.0000 O   0  0  0  0  0  0  0  0  0  0  0  0
  1  2  1  0  0  0  0
  2  3  2  0  0  0  0
  1  4  2  0  0  0  0
  5  6  1  0  0  0  0
  6  7  2  0  0  0  0
  7  8  1  0  0  0  0
  8  9  2  0  0  0  0
  9 10  1  0  0  0  0
  5 10  2  0  0  0  0
  8 11  1  0  0  0  0
  3  5  1  0  0  0  0
 12 13  1  0  0  0  0
 13 14  2  0  0  0  0
 14 15  1  0  0  0  0
 15 16  2  0  0  0  0
 16 17  1  0  0  0  0
 12 17  2  0  0  0  0
 18 19  1  0  0  0  0
 19 20  2  0  0  0  0
 20 21  1  0  0  0  0
 20 22  1  0  0  0  0
 16 18  1  0  0  0  0
 23 24  1  0  0  0  0
 15 23  1  0  0  0  0
 13 25  1  0  0  0  0
  1 12  1  0  0  0  0
M  END
>  <cdx:fragmentId>
27

$$$$
