98275.cdx
  Mrv1902 05222410272D          

 11 11  0  0  0  0            999 V2000
    9.6997   -9.2404    0.0000 C   0  0  0  0  0  0  0  0  0  0  0  0
    8.9853   -8.8279    0.0000 C   0  0  0  0  0  0  0  0  0  0  0  0
    8.2708   -9.2404    0.0000 C   0  0  0  0  0  0  0  0  0  0  0  0
    7.5563   -8.8279    0.0000 C   0  0  0  0  0  0  0  0  0  0  0  0
    6.8419   -9.2404    0.0000 C   0  0  0  0  0  0  0  0  0  0  0  0
    5.4129   -9.2404    0.0000 C   0  0  0  0  0  0  0  0  0  0  0  0
    4.6984   -8.8279    0.0000 C   0  0  0  0  0  0  0  0  0  0  0  0
    4.6984   -8.0029    0.0000 C   0  0  0  0  0  0  0  0  0  0  0  0
    5.4129   -7.5904    0.0000 C   0  0  0  0  0  0  0  0  0  0  0  0
    6.1274   -8.0029    0.0000 C   0  0  0  0  0  0  0  0  0  0  0  0
    6.1274   -8.8279    0.0000 C   0  0  0  0  0  0  0  0  0  0  0  0
 11  5  1  0  0  0  0
  2  1  1  0  0  0  0
  3  2  1  0  0  0  0
  4  3  1  0  0  0  0
  5  4  2  0  0  0  0
 11  6  2  0  0  0  0
  7  6  1  0  0  0  0
  8  7  2  0  0  0  0
  9  8  1  0  0  0  0
 10  9  2  0  0  0  0
 11 10  1  0  0  0  0
M  END
>  <cdx:fragmentId>
5

$$$$
