98276.cdx
  Mrv1902 05222410282D          

 66 71  0  0  0  0            999 V2000
    3.7605   -6.7385    0.0000 C   0  0  0  0  0  0  0  0  0  0  0  0
    4.1742   -6.0247    0.0000 N   0  0  0  0  0  0  0  0  0  0  0  0
    4.9948   -5.9399    0.0000 C   0  0  1  0  0  0  0  0  0  0  0  0
    5.1677   -5.1332    0.0000 C   0  0  0  0  0  0  0  0  0  0  0  0
    4.4539   -4.7195    0.0000 C   0  0  0  0  0  0  0  0  0  0  0  0
    3.8399   -5.2705    0.0000 C   0  0  0  0  0  0  0  0  0  0  0  0
    3.9727   -7.5357    0.0000 O   0  0  0  0  0  0  0  0  0  0  0  0
    5.5458   -6.5539    0.0000 C   0  0  0  0  0  0  0  0  0  0  0  0
    6.3531   -6.3837    0.0000 N   0  0  0  0  0  0  0  0  0  0  0  0
    5.2896   -7.3381    0.0000 O   0  0  0  0  0  0  0  0  0  0  0  0
    6.9041   -6.9977    0.0000 C   0  0  1  0  0  0  0  0  0  0  0  0
    6.6478   -7.7819    0.0000 C   0  0  0  0  0  0  0  0  0  0  0  0
    7.7113   -6.8275    0.0000 C   0  0  0  0  0  0  0  0  0  0  0  0
    8.2623   -7.4415    0.0000 N   0  0  0  0  0  0  0  0  0  0  0  0
    7.9676   -6.0433    0.0000 O   0  0  0  0  0  0  0  0  0  0  0  0
    5.9327   -8.1932    0.0000 C   0  0  0  0  0  0  0  0  0  0  0  0
    5.2189   -7.7795    0.0000 C   0  0  0  0  0  0  0  0  0  0  0  0
    4.5037   -8.1908    0.0000 C   0  0  0  0  0  0  0  0  0  0  0  0
    4.5023   -9.0158    0.0000 C   0  0  0  0  0  0  0  0  0  0  0  0
    5.2161   -9.4295    0.0000 C   0  0  0  0  0  0  0  0  0  0  0  0
    5.9313   -9.0182    0.0000 C   0  0  0  0  0  0  0  0  0  0  0  0
    3.7872   -9.4271    0.0000 O   0  0  0  0  0  0  0  0  0  0  0  0
    9.0873   -7.4415    0.0000 C   0  0  2  0  0  0  0  0  0  0  0  0
    8.5040   -8.0249    0.0000 H   0  0  0  0  0  0  0  0  0  0  0  0
    9.5896   -6.7870    0.0000 C   0  0  0  0  0  0  0  0  0  0  0  0
    9.2739   -6.0248    0.0000 N   0  0  0  0  0  0  0  0  0  0  0  0
   10.4075   -6.8947    0.0000 O   0  0  0  0  0  0  0  0  0  0  0  0
    9.7761   -5.3703    0.0000 C   0  0  1  0  0  0  0  0  0  0  0  0
    9.4604   -4.6081    0.0000 C   0  0  0  0  0  0  0  0  0  0  0  0
   10.5940   -5.4780    0.0000 C   0  0  0  0  0  0  0  0  0  0  0  0
   11.0963   -4.8235    0.0000 O   0  0  0  0  0  0  0  0  0  0  0  0
   11.1774   -6.0614    0.0000 N   0  0  0  0  0  0  0  0  0  0  0  0
   11.9743   -6.2749    0.0000 C   0  0  1  0  0  0  0  0  0  0  0  0
   12.1878   -7.0718    0.0000 C   0  0  0  0  0  0  0  0  0  0  0  0
   11.9743   -5.4499    0.0000 H   0  0  0  0  0  0  0  0  0  0  0  0
   12.7993   -6.2749    0.0000 H   0  0  0  0  0  0  0  0  0  0  0  0
   11.6044   -7.6551    0.0000 N   0  0  0  0  0  0  0  0  0  0  0  0
   12.9847   -7.2853    0.0000 O   0  0  0  0  0  0  0  0  0  0  0  0
   11.8180   -8.4520    0.0000 C   0  0  1  0  0  0  0  0  0  0  0  0
   12.6149   -8.6655    0.0000 C   0  0  0  0  0  0  0  0  0  0  0  0
   12.8284   -9.4624    0.0000 O   0  0  0  0  0  0  0  0  0  0  0  0
   11.2346   -9.0354    0.0000 C   0  0  0  0  0  0  0  0  0  0  0  0
   10.4377   -8.8219    0.0000 O   0  0  0  0  0  0  0  0  0  0  0  0
   11.4481   -9.8323    0.0000 N   0  0  0  0  0  0  0  0  0  0  0  0
   10.8648  -10.4156    0.0000 C   0  0  1  0  0  0  0  0  0  0  0  0
   10.0398  -10.4156    0.0000 C   0  0  0  0  0  0  0  0  0  0  0  0
   11.1805  -11.1778    0.0000 C   0  0  0  0  0  0  0  0  0  0  0  0
   10.6782  -11.8324    0.0000 O   0  0  0  0  0  0  0  0  0  0  0  0
   11.9984  -11.2855    0.0000 O   0  0  0  0  0  0  0  0  0  0  0  0
    9.6273   -9.7012    0.0000 C   0  0  0  0  0  0  0  0  0  0  0  0
    9.9628   -8.9475    0.0000 C   0  0  0  0  0  0  0  0  0  0  0  0
    9.3497   -8.3955    0.0000 N   0  0  0  0  0  0  0  0  0  0  0  0
    8.6353   -8.8080    0.0000 C   0  0  0  0  0  0  0  0  0  0  0  0
    8.8068   -9.6149    0.0000 C   0  0  0  0  0  0  0  0  0  0  0  0
    7.8506   -8.5530    0.0000 C   0  0  0  0  0  0  0  0  0  0  0  0
    7.2375   -9.1050    0.0000 C   0  0  0  0  0  0  0  0  0  0  0  0
    7.4091   -9.9120    0.0000 C   0  0  0  0  0  0  0  0  0  0  0  0
    8.1937  -10.1670    0.0000 C   0  0  0  0  0  0  0  0  0  0  0  0
    9.9626   -3.9536    0.0000 C   0  0  0  0  0  0  0  0  0  0  0  0
    8.6424   -4.5004    0.0000 C   0  0  0  0  0  0  0  0  0  0  0  0
    2.9427   -6.6294    0.0000 C   0  0  2  0  0  0  0  0  0  0  0  0
    2.5503   -5.9038    0.0000 C   0  0  0  0  0  0  0  0  0  0  0  0
    1.7388   -6.0528    0.0000 C   0  0  0  0  0  0  0  0  0  0  0  0
    1.6298   -6.8705    0.0000 C   0  0  0  0  0  0  0  0  0  0  0  0
    2.3738   -7.2269    0.0000 N   0  0  0  0  0  0  0  0  0  0  0  0
    0.9041   -7.2630    0.0000 O   0  0  0  0  0  0  0  0  0  0  0  0
  1  2  1  0  0  0  0
  2  3  1  0  0  0  0
  3  4  1  1  0  0  0
  4  5  1  0  0  0  0
  5  6  1  0  0  0  0
  6  2  1  0  0  0  0
  1  7  2  0  0  0  0
  3  8  1  0  0  0  0
  8  9  1  0  0  0  0
  8 10  2  0  0  0  0
  9 11  1  0  0  0  0
 11 12  1  6  0  0  0
 11 13  1  0  0  0  0
 13 14  1  0  0  0  0
 13 15  2  0  0  0  0
 12 16  1  0  0  0  0
 16 17  2  0  0  0  0
 17 18  1  0  0  0  0
 18 19  2  0  0  0  0
 19 20  1  0  0  0  0
 20 21  2  0  0  0  0
 21 16  1  0  0  0  0
 19 22  1  0  0  0  0
 23 14  1  6  0  0  0
 23 24  1  1  0  0  0
 23 25  1  0  0  0  0
 25 26  1  0  0  0  0
 25 27  2  0  0  0  0
 26 28  1  0  0  0  0
 28 29  1  1  0  0  0
 28 30  1  0  0  0  0
 30 31  2  0  0  0  0
 30 32  1  0  0  0  0
 32 33  1  0  0  0  0
 33 34  1  0  0  0  0
 33 35  1  6  0  0  0
 33 36  1  1  0  0  0
 34 37  1  0  0  0  0
 34 38  2  0  0  0  0
 37 39  1  0  0  0  0
 39 40  1  1  0  0  0
 40 41  1  0  0  0  0
 39 42  1  0  0  0  0
 42 43  2  0  0  0  0
 42 44  1  0  0  0  0
 44 45  1  0  0  0  0
 45 46  1  0  0  0  0
 45 47  1  6  0  0  0
 47 48  2  0  0  0  0
 47 49  1  0  0  0  0
 46 50  1  0  0  0  0
 50 51  2  0  0  0  0
 51 52  1  0  0  0  0
 52 53  1  0  0  0  0
 53 54  2  0  0  0  0
 54 50  1  0  0  0  0
 53 55  1  0  0  0  0
 55 56  2  0  0  0  0
 56 57  1  0  0  0  0
 57 58  2  0  0  0  0
 58 54  1  0  0  0  0
 23 52  1  0  0  0  0
 29 59  1  0  0  0  0
 29 60  1  0  0  0  0
  1 61  1  0  0  0  0
 61 62  1  1  0  0  0
 62 63  1  0  0  0  0
 63 64  1  0  0  0  0
 64 65  1  0  0  0  0
 65 61  1  0  0  0  0
 64 66  2  0  0  0  0
M  END
>  <cdx:fragmentId>
5

$$$$
