98281.cdx
  Mrv1902 05222410202D          

 77 86  0  0  0  0            999 V2000
    7.7834   -6.5004    0.0000 O   0  0  0  0  0  0  0  0  0  0  0  0
    8.5007   -5.1542    0.0000 O   0  0  0  0  0  0  0  0  0  0  0  0
    7.7855   -5.5654    0.0000 C   0  0  2  0  0  0  0  0  0  0  0  0
    7.0718   -5.1515    0.0000 C   0  0  1  0  0  0  0  0  0  0  0  0
    7.0734   -4.3265    0.0000 C   0  0  2  0  0  0  0  0  0  0  0  0
    7.7886   -3.9154    0.0000 C   0  0  1  0  0  0  0  0  0  0  0  0
    8.5023   -4.3292    0.0000 C   0  0  0  0  0  0  0  0  0  0  0  0
    7.7902   -3.0904    0.0000 O   0  0  0  0  0  0  0  0  0  0  0  0
    6.3597   -3.9126    0.0000 O   0  0  0  0  0  0  0  0  0  0  0  0
    6.3565   -5.5626    0.0000 O   0  0  0  0  0  0  0  0  0  0  0  0
   15.7894   -9.4996    0.0000 C   0  0  1  0  0  0  0  0  0  0  0  0
   16.5039   -9.0871    0.0000 C   0  0  2  0  0  0  0  0  0  0  0  0
   17.2885   -9.3420    0.0000 C   0  0  0  0  0  0  0  0  0  0  0  0
   17.7734   -8.6746    0.0000 C   0  0  2  0  0  0  0  0  0  0  0  0
   18.5580   -8.4196    0.0000 O   0  0  0  0  0  0  0  0  0  0  0  0
   18.5580   -7.5946    0.0000 C   0  0  2  0  0  0  0  0  0  0  0  0
   17.7734   -7.3397    0.0000 C   0  0  2  0  0  0  0  0  0  0  0  0
   17.2885   -8.0071    0.0000 C   0  0  2  0  0  0  0  0  0  0  0  0
   16.5039   -8.2621    0.0000 C   0  0  1  0  0  0  0  0  0  0  0  0
   15.7894   -7.8496    0.0000 C   0  0  0  0  0  0  0  0  0  0  0  0
   15.0749   -8.2621    0.0000 C   0  0  0  0  0  0  0  0  0  0  0  0
   15.0749   -9.0871    0.0000 C   0  0  2  0  0  0  0  0  0  0  0  0
   14.3604   -9.4996    0.0000 C   0  0  1  0  0  0  0  0  0  0  0  0
   13.6460   -9.0871    0.0000 C   0  0  0  0  0  0  0  0  0  0  0  0
   12.9315   -9.4996    0.0000 C   0  0  0  0  0  0  0  0  0  0  0  0
   12.9315  -10.3246    0.0000 C   0  0  1  0  0  0  0  0  0  0  0  0
   13.6460  -10.7371    0.0000 C   0  0  0  0  0  0  0  0  0  0  0  0
   14.3604  -10.3246    0.0000 C   0  0  0  0  0  0  0  0  0  0  0  0
   15.0749  -10.7371    0.0000 C   0  0  0  0  0  0  0  0  0  0  0  0
   15.7894  -10.3246    0.0000 C   0  0  0  0  0  0  0  0  0  0  0  0
   18.4718   -6.7742    0.0000 O   0  0  0  0  0  0  0  0  0  0  0  0
   19.3117   -7.9302    0.0000 C   0  0  0  0  0  0  0  0  0  0  0  0
   19.9791   -7.4453    0.0000 C   0  0  0  0  0  0  0  0  0  0  0  0
   19.8929   -6.6248    0.0000 C   0  0  1  0  0  0  0  0  0  0  0  0
   19.1392   -6.2892    0.0000 C   0  0  0  0  0  0  0  0  0  0  0  0
   14.3604   -8.6746    0.0000 C   0  0  0  0  0  0  0  0  0  0  0  0
   16.5039   -7.4371    0.0000 C   0  0  0  0  0  0  0  0  0  0  0  0
   17.5185   -6.5551    0.0000 C   0  0  0  0  0  0  0  0  0  0  0  0
   20.5603   -6.1399    0.0000 C   0  0  0  0  0  0  0  0  0  0  0  0
   15.7894   -8.6746    0.0000 H   0  0  0  0  0  0  0  0  0  0  0  0
   16.5039   -9.9121    0.0000 H   0  0  0  0  0  0  0  0  0  0  0  0
   18.2583   -9.3420    0.0000 H   0  0  0  0  0  0  0  0  0  0  0  0
   16.9268   -7.2656    0.0000 H   0  0  0  0  0  0  0  0  0  0  0  0
   15.0749   -9.9121    0.0000 H   0  0  0  0  0  0  0  0  0  0  0  0
    9.3595  -10.6920    0.0000 O   0  0  0  0  0  0  0  0  0  0  0  0
   10.7753  -11.5394    0.0000 O   0  0  0  0  0  0  0  0  0  0  0  0
   11.5482   -7.8387    0.0000 O   0  0  0  0  0  0  0  0  0  0  0  0
   10.8273   -8.2398    0.0000 C   0  0  0  0  0  0  0  0  0  0  0  0
   12.2170  -10.7371    0.0000 O   0  0  0  0  0  0  0  0  0  0  0  0
   11.5092  -10.3134    0.0000 C   0  0  1  0  0  0  0  0  0  0  0  0
   10.7883  -10.7145    0.0000 C   0  0  1  0  0  0  0  0  0  0  0  0
   10.0804  -10.2908    0.0000 C   0  0  2  0  0  0  0  0  0  0  0  0
   10.0934   -9.4659    0.0000 C   0  0  2  0  0  0  0  0  0  0  0  0
   10.8143   -9.0647    0.0000 C   0  0  2  0  0  0  0  0  0  0  0  0
   11.5222   -9.4885    0.0000 O   0  0  0  0  0  0  0  0  0  0  0  0
    9.3855   -9.0422    0.0000 O   0  0  0  0  0  0  0  0  0  0  0  0
    9.4376   -5.7426    0.0000 O   0  0  0  0  0  0  0  0  0  0  0  0
   10.8663   -5.7651    0.0000 O   0  0  0  0  0  0  0  0  0  0  0  0
   10.8533   -6.5900    0.0000 C   0  0  0  0  0  0  0  0  0  0  0  0
   10.1324   -6.9912    0.0000 C   0  0  2  0  0  0  0  0  0  0  0  0
    9.4246   -6.5675    0.0000 C   0  0  2  0  0  0  0  0  0  0  0  0
    8.7037   -6.9687    0.0000 C   0  0  1  0  0  0  0  0  0  0  0  0
    8.6907   -7.7936    0.0000 C   0  0  2  0  0  0  0  0  0  0  0  0
    9.3985   -8.2173    0.0000 C   0  0  1  0  0  0  0  0  0  0  0  0
   10.1194   -7.8161    0.0000 O   0  0  0  0  0  0  0  0  0  0  0  0
    7.9698   -8.1948    0.0000 O   0  0  0  0  0  0  0  0  0  0  0  0
    4.6474   -6.8187    0.0000 O   0  0  0  0  0  0  0  0  0  0  0  0
    5.4723   -6.8055    0.0000 C   0  0  0  0  0  0  0  0  0  0  0  0
    4.6702   -8.2475    0.0000 O   0  0  0  0  0  0  0  0  0  0  0  0
    5.5179   -9.6631    0.0000 O   0  0  0  0  0  0  0  0  0  0  0  0
    7.1677   -9.6367    0.0000 O   0  0  0  0  0  0  0  0  0  0  0  0
    5.8961   -7.5133    0.0000 C   0  0  2  0  0  0  0  0  0  0  0  0
    5.4951   -8.2343    0.0000 C   0  0  2  0  0  0  0  0  0  0  0  0
    5.9189   -8.9421    0.0000 C   0  0  1  0  0  0  0  0  0  0  0  0
    6.7438   -8.9289    0.0000 C   0  0  2  0  0  0  0  0  0  0  0  0
    7.1449   -8.2079    0.0000 C   0  0  1  0  0  0  0  0  0  0  0  0
    6.7210   -7.5002    0.0000 O   0  0  0  0  0  0  0  0  0  0  0  0
 76 66  1  1  0  0  0
 63 66  1  6  0  0  0
 64 56  1  1  0  0  0
 53 56  1  1  0  0  0
 52 45  1  1  0  0  0
 51 46  1  6  0  0  0
 54 48  1  1  0  0  0
 48 47  1  0  0  0  0
 50 49  1  1  0  0  0
 55 50  1  0  0  0  0
 51 50  1  0  0  0  0
 52 51  1  0  0  0  0
 53 52  1  0  0  0  0
 54 53  1  0  0  0  0
 55 54  1  0  0  0  0
 61 57  1  6  0  0  0
 60 59  1  1  0  0  0
 59 58  1  0  0  0  0
 62  1  1  1  0  0  0
 65 60  1  0  0  0  0
 61 60  1  0  0  0  0
 62 61  1  0  0  0  0
 63 62  1  0  0  0  0
 64 63  1  0  0  0  0
 65 64  1  0  0  0  0
 72 68  1  1  0  0  0
 68 67  1  0  0  0  0
 73 69  1  6  0  0  0
 74 70  1  1  0  0  0
 75 71  1  6  0  0  0
 77 72  1  0  0  0  0
 73 72  1  0  0  0  0
 74 73  1  0  0  0  0
 75 74  1  0  0  0  0
 76 75  1  0  0  0  0
 77 76  1  0  0  0  0
  2  3  1  0  0  0  0
  3  4  1  0  0  0  0
  4  5  1  0  0  0  0
  5  6  1  0  0  0  0
  6  7  1  0  0  0  0
  2  7  1  0  0  0  0
  6  8  1  6  0  0  0
  5  9  1  1  0  0  0
  4 10  1  6  0  0  0
  3  1  1  1  0  0  0
 11 12  1  0  0  0  0
 12 13  1  0  0  0  0
 13 14  1  0  0  0  0
 14 15  1  0  0  0  0
 16 15  1  6  0  0  0
 16 17  1  0  0  0  0
 17 18  1  0  0  0  0
 18 19  1  0  0  0  0
 19 20  1  0  0  0  0
 20 21  1  0  0  0  0
 21 22  1  0  0  0  0
 22 23  1  0  0  0  0
 23 24  1  0  0  0  0
 24 25  1  0  0  0  0
 25 26  1  0  0  0  0
 26 27  1  0  0  0  0
 27 28  1  0  0  0  0
 28 29  2  0  0  0  0
 29 30  1  0  0  0  0
 11 30  1  0  0  0  0
 11 22  1  0  0  0  0
 23 28  1  0  0  0  0
 12 19  1  0  0  0  0
 14 18  1  0  0  0  0
 32 33  1  0  0  0  0
 33 34  1  0  0  0  0
 34 35  1  0  0  0  0
 31 35  1  0  0  0  0
 16 31  1  0  0  0  0
 16 32  1  0  0  0  0
 23 36  1  1  0  0  0
 19 37  1  1  0  0  0
 17 38  1  6  0  0  0
 34 39  1  1  0  0  0
 26 49  1  1  0  0  0
 11 40  1  1  0  0  0
 12 41  1  6  0  0  0
 14 42  1  6  0  0  0
 18 43  1  6  0  0  0
 22 44  1  6  0  0  0
M  END
>  <cdx:fragmentId>
846

$$$$
