98282.cdx
  Mrv1902 05222410192D          

 40 43  0  0  0  0            999 V2000
    6.2161   -7.3069    0.0000 O   0  0  0  0  0  0  0  0  0  0  0  0
    7.2756   -6.3481    0.0000 O   0  0  0  0  0  0  0  0  0  0  0  0
    6.4690   -6.5216    0.0000 C   0  0  2  0  0  0  0  0  0  0  0  0
    5.9155   -5.9099    0.0000 C   0  0  1  0  0  0  0  0  0  0  0  0
    6.1685   -5.1247    0.0000 C   0  0  2  0  0  0  0  0  0  0  0  0
    6.9750   -4.9511    0.0000 C   0  0  1  0  0  0  0  0  0  0  0  0
    7.5286   -5.5628    0.0000 C   0  0  1  0  0  0  0  0  0  0  0  0
    8.3351   -5.3893    0.0000 C   0  0  0  0  0  0  0  0  0  0  0  0
    8.5881   -4.6041    0.0000 O   0  0  0  0  0  0  0  0  0  0  0  0
    7.2280   -4.1659    0.0000 O   0  0  0  0  0  0  0  0  0  0  0  0
    5.6149   -4.5129    0.0000 O   0  0  0  0  0  0  0  0  0  0  0  0
    5.1089   -6.0834    0.0000 O   0  0  0  0  0  0  0  0  0  0  0  0
    7.1246  -12.9288    0.0000 O   0  0  0  0  0  0  0  0  0  0  0  0
    7.8422  -14.1646    0.0000 O   0  0  0  0  0  0  0  0  0  0  0  0
    7.8401  -13.3396    0.0000 C   0  0  0  0  0  0  0  0  0  0  0  0
   11.4114  -12.9182    0.0000 O   0  0  0  0  0  0  0  0  0  0  0  0
   10.7000  -14.1575    0.0000 O   0  0  0  0  0  0  0  0  0  0  0  0
   10.6980  -13.3325    0.0000 C   0  0  0  0  0  0  0  0  0  0  0  0
    9.2691  -13.3360    0.0000 N   0  0  0  0  0  0  0  0  0  0  0  0
    9.9825  -12.9217    0.0000 C   0  0  0  0  0  0  0  0  0  0  0  0
    9.9805  -12.0967    0.0000 C   0  0  0  0  0  0  0  0  0  0  0  0
    9.2650  -11.6860    0.0000 C   0  0  0  0  0  0  0  0  0  0  0  0
    8.5515  -12.1003    0.0000 C   0  0  0  0  0  0  0  0  0  0  0  0
    8.5536  -12.9253    0.0000 C   0  0  3  0  0  0  0  0  0  0  0  0
    9.2629  -10.8610    0.0000 C   0  0  0  0  0  0  0  0  0  0  0  0
    8.5474  -10.4503    0.0000 C   0  0  0  0  0  0  0  0  0  0  0  0
    5.7101   -8.8774    0.0000 O   0  0  0  0  0  0  0  0  0  0  0  0
   10.1704  -10.1983    0.0000 O   0  5  0  0  0  0  0  0  0  0  0  0
   10.6086   -8.8382    0.0000 O   0  0  0  0  0  0  0  0  0  0  0  0
    9.9969   -9.3917    0.0000 C   0  0  0  0  0  0  0  0  0  0  0  0
    7.8767   -9.1420    0.0000 C   0  0  0  0  0  0  0  0  0  0  0  0
    7.0702   -9.3156    0.0000 C   0  0  0  0  0  0  0  0  0  0  0  0
    6.5166   -8.7039    0.0000 C   0  0  0  0  0  0  0  0  0  0  0  0
    6.7696   -7.9186    0.0000 C   0  0  0  0  0  0  0  0  0  0  0  0
    7.5762   -7.7451    0.0000 C   0  0  0  0  0  0  0  0  0  0  0  0
    8.1297   -8.3568    0.0000 C   0  0  0  0  0  0  0  0  0  0  0  0
    8.9547   -8.3547    0.0000 C   0  0  0  0  0  0  0  0  0  0  0  0
    9.2116   -9.1387    0.0000 C   0  0  2  0  0  0  0  0  0  0  0  0
    8.5454   -9.6253    0.0000 N   0  3  0  0  0  0  0  0  0  0  0  0
    9.7950   -8.5554    0.0000 H   0  0  0  0  0  0  0  0  0  0  0  0
 34  1  1  0  0  0  0
  2  3  1  0  0  0  0
 39 26  2  0  0  0  0
 25 22  2  0  0  0  0
 24 15  1  4  0  0  0
 15 13  1  0  0  0  0
 15 14  2  0  0  0  0
 20 18  1  0  0  0  0
 18 16  1  0  0  0  0
 18 17  2  0  0  0  0
 24 19  1  0  0  0  0
 20 19  1  0  0  0  0
 21 20  2  0  0  0  0
 22 21  1  0  0  0  0
 23 22  1  0  0  0  0
 24 23  1  0  0  0  0
 26 25  1  0  0  0  0
 33 27  1  0  0  0  0
 38 30  1  1  0  0  0
 30 28  1  0  0  0  0
 30 29  2  0  0  0  0
 36 31  2  0  0  0  0
 39 31  1  0  0  0  0
 32 31  1  0  0  0  0
 33 32  2  0  0  0  0
 34 33  1  0  0  0  0
 35 34  2  0  0  0  0
 36 35  1  0  0  0  0
 37 36  1  0  0  0  0
 38 37  1  0  0  0  0
 39 38  1  0  0  0  0
  3  4  1  0  0  0  0
  4  5  1  0  0  0  0
  5  6  1  0  0  0  0
  6  7  1  0  0  0  0
  2  7  1  0  0  0  0
  8  9  1  0  0  0  0
  7  8  1  1  0  0  0
  6 10  1  6  0  0  0
  5 11  1  1  0  0  0
  4 12  1  6  0  0  0
  3  1  1  1  0  0  0
 38 40  1  6  0  0  0
M  CHG  2  28  -1  39   1
M  END
>  <cdx:fragmentId>
35

$$$$
