98289.cdx
  Mrv1902 05222410282D          

 60 66  0  0  0  0            999 V2000
    3.6774  -11.2920    0.0000 C   0  0  0  0  0  0  0  0  0  0  0  0
    3.6774  -12.1170    0.0000 C   0  0  1  0  0  0  0  0  0  0  0  0
    4.3918  -12.5295    0.0000 C   0  0  1  0  0  0  0  0  0  0  0  0
    5.1063  -12.1170    0.0000 C   0  0  1  0  0  0  0  0  0  0  0  0
    5.1063  -11.2920    0.0000 C   0  0  2  0  0  0  0  0  0  0  0  0
    4.3918  -10.8795    0.0000 C   0  0  0  0  0  0  0  0  0  0  0  0
    5.8208  -12.5295    0.0000 C   0  0  0  0  0  0  0  0  0  0  0  0
    6.5353  -12.1170    0.0000 C   0  0  0  0  0  0  0  0  0  0  0  0
    6.5353  -11.2920    0.0000 C   0  0  2  0  0  0  0  0  0  0  0  0
    5.8208  -10.8795    0.0000 C   0  0  2  0  0  0  0  0  0  0  0  0
    7.2497  -10.8795    0.0000 C   0  0  1  0  0  0  0  0  0  0  0  0
    7.2497  -10.0545    0.0000 C   0  0  0  0  0  0  0  0  0  0  0  0
    6.5353   -9.6420    0.0000 C   0  0  0  0  0  0  0  0  0  0  0  0
    5.8208  -10.0545    0.0000 C   0  0  0  0  0  0  0  0  0  0  0  0
    7.9642  -11.2920    0.0000 C   0  0  0  0  0  0  0  0  0  0  0  0
    8.6787  -10.8795    0.0000 C   0  0  0  0  0  0  0  0  0  0  0  0
    8.6787  -10.0545    0.0000 C   0  0  2  0  0  0  0  0  0  0  0  0
    7.9642   -9.6420    0.0000 C   0  0  1  0  0  0  0  0  0  0  0  0
    9.3931   -9.6420    0.0000 C   0  0  0  0  0  0  0  0  0  0  0  0
    9.3931   -8.8170    0.0000 C   0  0  0  0  0  0  0  0  0  0  0  0
    8.6787   -8.4045    0.0000 C   0  0  0  0  0  0  0  0  0  0  0  0
    7.9642   -8.8170    0.0000 C   0  0  0  0  0  0  0  0  0  0  0  0
    2.9629  -12.5295    0.0000 O   0  0  0  0  0  0  0  0  0  0  0  0
    3.9793  -13.2439    0.0000 C   0  0  0  0  0  0  0  0  0  0  0  0
    5.1063  -10.4670    0.0000 C   0  0  0  0  0  0  0  0  0  0  0  0
    6.5353  -10.4670    0.0000 C   0  0  0  0  0  0  0  0  0  0  0  0
    8.2662   -7.6900    0.0000 C   0  0  0  0  0  0  0  0  0  0  0  0
   10.1076  -10.0545    0.0000 O   0  0  0  0  0  0  0  0  0  0  0  0
    4.8043  -13.2439    0.0000 C   0  0  0  0  0  0  0  0  0  0  0  0
    7.2497  -11.7045    0.0000 C   0  0  0  0  0  0  0  0  0  0  0  0
    9.0912   -7.6900    0.0000 C   0  0  0  0  0  0  0  0  0  0  0  0
   12.9767  -10.0520    0.0000 O   0  0  0  0  0  0  0  0  0  0  0  0
   13.6926  -10.4620    0.0000 C   0  0  1  0  0  0  0  0  0  0  0  0
   14.4056  -10.0469    0.0000 C   0  0  2  0  0  0  0  0  0  0  0  0
   14.4027   -9.2219    0.0000 O   0  0  0  0  0  0  0  0  0  0  0  0
   15.1215  -10.4569    0.0000 C   0  0  2  0  0  0  0  0  0  0  0  0
   15.1245  -11.2819    0.0000 C   0  0  2  0  0  0  0  0  0  0  0  0
   15.8404  -11.6918    0.0000 O   0  0  0  0  0  0  0  0  0  0  0  0
   14.4115  -11.6969    0.0000 C   0  0  2  0  0  0  0  0  0  0  0  0
   13.6956  -11.2870    0.0000 O   0  0  0  0  0  0  0  0  0  0  0  0
   14.4144  -12.5219    0.0000 C   0  0  0  0  0  0  0  0  0  0  0  0
   15.1304  -12.9319    0.0000 O   0  0  0  0  0  0  0  0  0  0  0  0
   10.8308  -10.4599    0.0000 C   0  0  1  0  0  0  0  0  0  0  0  0
   11.5441  -10.0455    0.0000 C   0  0  2  0  0  0  0  0  0  0  0  0
   11.5419   -9.2205    0.0000 O   0  0  0  0  0  0  0  0  0  0  0  0
   12.2597  -10.4561    0.0000 C   0  0  2  0  0  0  0  0  0  0  0  0
   12.2619  -11.2811    0.0000 C   0  0  2  0  0  0  0  0  0  0  0  0
   12.9775  -11.6917    0.0000 O   0  0  0  0  0  0  0  0  0  0  0  0
   11.5485  -11.6955    0.0000 C   0  0  2  0  0  0  0  0  0  0  0  0
   10.8329  -11.2849    0.0000 O   0  0  0  0  0  0  0  0  0  0  0  0
   11.5507  -12.5205    0.0000 C   0  0  0  0  0  0  0  0  0  0  0  0
   12.2663  -12.9311    0.0000 O   0  0  0  0  0  0  0  0  0  0  0  0
   15.8821  -10.0142    0.0000 O   0  0  0  0  0  0  0  0  0  0  0  0
   13.7014  -12.9369    0.0000 O   0  0  0  0  0  0  0  0  0  0  0  0
    9.3931  -11.2920    0.0000 O   0  0  0  0  0  0  0  0  0  0  0  0
    9.3931  -10.4670    0.0000 C   0  0  0  0  0  0  0  0  0  0  0  0
    5.1063  -12.9420    0.0000 H   0  0  0  0  0  0  0  0  0  0  0  0
    5.8208  -11.7045    0.0000 H   0  0  0  0  0  0  0  0  0  0  0  0
    7.9642  -10.4670    0.0000 H   0  0  0  0  0  0  0  0  0  0  0  0
    4.3918  -13.9584    0.0000 O   0  0  0  0  0  0  0  0  0  0  0  0
  1  2  1  0  0  0  0
  2  3  1  0  0  0  0
  3  4  1  0  0  0  0
  4  5  1  0  0  0  0
  5  6  1  0  0  0  0
  6  1  1  0  0  0  0
  4  7  1  0  0  0  0
  7  8  1  0  0  0  0
  8  9  1  0  0  0  0
  9 10  1  0  0  0  0
 10  5  1  0  0  0  0
  9 11  1  0  0  0  0
 11 12  1  0  0  0  0
 12 13  2  0  0  0  0
 13 14  1  0  0  0  0
 14 10  1  0  0  0  0
 11 15  1  0  0  0  0
 15 16  1  0  0  0  0
 16 17  1  0  0  0  0
 17 18  1  0  0  0  0
 18 12  1  0  0  0  0
 17 19  1  0  0  0  0
 19 20  1  0  0  0  0
 20 21  1  0  0  0  0
 21 22  1  0  0  0  0
 22 18  1  0  0  0  0
  2 23  1  1  0  0  0
  3 24  1  1  0  0  0
  5 25  1  1  0  0  0
  9 26  1  1  0  0  0
 21 27  1  0  0  0  0
 17 56  1  1  0  0  0
  3 29  1  0  0  0  0
 11 30  1  6  0  0  0
 21 31  1  0  0  0  0
 33 32  1  1  0  0  0
 33 34  1  0  0  0  0
 34 35  1  6  0  0  0
 34 36  1  0  0  0  0
 36 53  1  1  0  0  0
 36 37  1  0  0  0  0
 37 38  1  6  0  0  0
 37 39  1  0  0  0  0
 39 40  1  0  0  0  0
 39 41  1  1  0  0  0
 41 42  1  0  0  0  0
 33 40  1  0  0  0  0
 43 44  1  0  0  0  0
 44 45  1  6  0  0  0
 44 46  1  0  0  0  0
 46 47  1  0  0  0  0
 47 48  1  6  0  0  0
 47 49  1  0  0  0  0
 49 50  1  0  0  0  0
 49 51  1  1  0  0  0
 51 52  1  0  0  0  0
 43 50  1  0  0  0  0
 46 32  1  1  0  0  0
 43 28  1  1  0  0  0
 56 28  1  0  0  0  0
 41 54  2  0  0  0  0
 56 55  2  0  0  0  0
  4 57  1  6  0  0  0
 10 58  1  6  0  0  0
 18 59  1  1  0  0  0
 29 60  1  0  0  0  0
M  END
>  <cdx:fragmentId>
5

$$$$
