98280.cdx
  Mrv1902 05222410202D          

 12 13  0  0  0  0            999 V2000
    6.5303   -8.8904    0.0000 C   0  0  0  0  0  0  0  0  0  0  0  0
    7.2448   -8.4779    0.0000 C   0  0  0  0  0  0  0  0  0  0  0  0
    7.2448   -7.6529    0.0000 C   0  0  0  0  0  0  0  0  0  0  0  0
    6.5303   -7.2404    0.0000 C   0  0  0  0  0  0  0  0  0  0  0  0
    5.8159   -7.6529    0.0000 C   0  0  0  0  0  0  0  0  0  0  0  0
    5.8159   -8.4779    0.0000 O   0  0  0  0  0  0  0  0  0  0  0  0
    8.0294   -7.3980    0.0000 C   0  0  0  0  0  0  0  0  0  0  0  0
    8.5143   -8.0654    0.0000 C   0  0  0  0  0  0  0  0  0  0  0  0
    8.0294   -8.7329    0.0000 C   0  0  0  0  0  0  0  0  0  0  0  0
    5.1014   -7.2404    0.0000 O   0  0  0  0  0  0  0  0  0  0  0  0
    8.2844   -9.5175    0.0000 C   0  0  0  0  0  0  0  0  0  0  0  0
    9.0913   -9.6890    0.0000 O   0  0  0  0  0  0  0  0  0  0  0  0
  1  2  1  0  0  0  0
  2  3  1  0  0  0  0
  3  4  1  0  0  0  0
  4  5  1  0  0  0  0
  5  6  1  0  0  0  0
  1  6  1  0  0  0  0
  7  8  1  0  0  0  0
  8  9  2  0  0  0  0
  9  2  1  0  0  0  0
  7  3  1  0  0  0  0
  5 10  2  0  0  0  0
 11 12  1  0  0  0  0
  9 11  1  0  0  0  0
M  END
>  <cdx:fragmentId>
5

$$$$
