98297.cdx
  Mrv1902 05222410192D          

 38 41  0  0  0  0            999 V2000
    3.5055  -10.9209    0.0000 C   0  0  1  0  0  0  0  0  0  0  0  0
    3.5055  -10.0959    0.0000 C   0  0  0  0  0  0  0  0  0  0  0  0
    4.2200   -9.6834    0.0000 C   0  0  0  0  0  0  0  0  0  0  0  0
    4.2200  -11.3334    0.0000 C   0  0  0  0  0  0  0  0  0  0  0  0
    4.6325  -12.0478    0.0000 C   0  0  0  0  0  0  0  0  0  0  0  0
    3.8075  -12.0478    0.0000 C   0  0  0  0  0  0  0  0  0  0  0  0
    4.9345  -10.9209    0.0000 C   0  0  2  0  0  0  0  0  0  0  0  0
    4.9345  -11.7459    0.0000 H   0  0  0  0  0  0  0  0  0  0  0  0
    5.6489  -11.3334    0.0000 C   0  0  0  0  0  0  0  0  0  0  0  0
    6.3634  -10.9209    0.0000 C   0  0  0  0  0  0  0  0  0  0  0  0
    6.3634  -10.0959    0.0000 C   0  0  0  0  0  0  0  0  0  0  0  0
    7.0779   -9.6834    0.0000 C   0  0  2  0  0  0  0  0  0  0  0  0
    7.0779  -10.5084    0.0000 C   0  0  0  0  0  0  0  0  0  0  0  0
    7.8625   -9.9383    0.0000 C   0  0  2  0  0  0  0  0  0  0  0  0
    8.3474   -9.2709    0.0000 C   0  0  0  0  0  0  0  0  0  0  0  0
    7.8625   -8.6034    0.0000 C   0  0  0  0  0  0  0  0  0  0  0  0
    8.1174   -7.8188    0.0000 C   0  0  1  0  0  0  0  0  0  0  0  0
    8.9244   -7.6473    0.0000 C   0  0  0  0  0  0  0  0  0  0  0  0
    9.1793   -6.8627    0.0000 C   0  0  0  0  0  0  0  0  0  0  0  0
    9.9863   -6.6911    0.0000 C   0  0  0  0  0  0  0  0  0  0  0  0
   10.2413   -5.9065    0.0000 C   0  0  0  0  0  0  0  0  0  0  0  0
   11.0482   -5.7350    0.0000 C   0  0  0  0  0  0  0  0  0  0  0  0
    9.6892   -5.2934    0.0000 C   0  0  0  0  0  0  0  0  0  0  0  0
    7.5654   -7.2057    0.0000 C   0  0  0  0  0  0  0  0  0  0  0  0
    7.0779   -8.8584    0.0000 C   0  0  2  0  0  0  0  0  0  0  0  0
    7.0779   -8.0334    0.0000 C   0  0  0  0  0  0  0  0  0  0  0  0
    6.3634   -8.4459    0.0000 C   0  0  0  0  0  0  0  0  0  0  0  0
    5.6489   -8.8584    0.0000 C   0  0  0  0  0  0  0  0  0  0  0  0
    5.6489   -9.6834    0.0000 C   0  0  0  0  0  0  0  0  0  0  0  0
    4.9345  -10.0959    0.0000 C   0  0  1  0  0  0  0  0  0  0  0  0
    4.9345   -9.2709    0.0000 C   0  0  0  0  0  0  0  0  0  0  0  0
   11.3032   -4.9504    0.0000 O   0  0  0  0  0  0  0  0  0  0  0  0
   11.6003   -6.3481    0.0000 O   0  0  0  0  0  0  0  0  0  0  0  0
    8.6273   -6.2496    0.0000 O   0  0  0  0  0  0  0  0  0  0  0  0
    4.9345   -8.4459    0.0000 O   0  0  0  0  0  0  0  0  0  0  0  0
    7.0779  -11.3334    0.0000 O   0  0  0  0  0  0  0  0  0  0  0  0
    8.1174  -10.7229    0.0000 O   0  0  0  0  0  0  0  0  0  0  0  0
    2.7910  -11.3334    0.0000 O   0  0  0  0  0  0  0  0  0  0  0  0
  1  2  1  0  0  0  0
  2  3  1  0  0  0  0
  1  4  1  0  0  0  0
  4  5  1  0  0  0  0
  4  6  1  0  0  0  0
  4  7  1  0  0  0  0
  7  8  1  6  0  0  0
  7  9  1  0  0  0  0
  9 10  1  0  0  0  0
 10 11  1  0  0  0  0
 11 12  1  0  0  0  0
 12 13  1  6  0  0  0
 12 14  1  0  0  0  0
 14 15  1  0  0  0  0
 15 16  2  0  0  0  0
 16 17  1  0  0  0  0
 17 18  1  0  0  0  0
 18 19  1  0  0  0  0
 19 20  1  0  0  0  0
 20 21  1  0  0  0  0
 21 22  1  0  0  0  0
 21 23  1  0  0  0  0
 17 24  1  6  0  0  0
 16 25  1  0  0  0  0
 12 25  1  0  0  0  0
 25 26  1  1  0  0  0
 25 27  1  0  0  0  0
 27 28  1  0  0  0  0
 28 29  1  0  0  0  0
 11 29  2  0  0  0  0
 29 30  1  0  0  0  0
  3 30  1  0  0  0  0
  7 30  1  0  0  0  0
 30 31  1  1  0  0  0
 22 32  2  0  0  0  0
 22 33  1  0  0  0  0
 19 34  2  0  0  0  0
 28 35  2  0  0  0  0
 10 36  2  0  0  0  0
 14 37  1  6  0  0  0
  1 38  1  1  0  0  0
M  END
>  <cdx:fragmentId>
5

$$$$
