98291.cdx
  Mrv1902 05222410182D          

 36 40  0  0  0  0            999 V2000
    4.3087   -9.7763    0.0000 C   0  0  0  0  0  0  0  0  0  0  0  0
    4.3087  -10.6013    0.0000 C   0  0  1  0  0  0  0  0  0  0  0  0
    5.0231  -11.0137    0.0000 C   0  0  1  0  0  0  0  0  0  0  0  0
    5.7376  -10.6013    0.0000 C   0  0  1  0  0  0  0  0  0  0  0  0
    5.7376   -9.7763    0.0000 C   0  0  2  0  0  0  0  0  0  0  0  0
    5.0231   -9.3637    0.0000 C   0  0  0  0  0  0  0  0  0  0  0  0
    6.4521  -11.0137    0.0000 C   0  0  0  0  0  0  0  0  0  0  0  0
    7.1666  -10.6013    0.0000 C   0  0  0  0  0  0  0  0  0  0  0  0
    7.1666   -9.7763    0.0000 C   0  0  2  0  0  0  0  0  0  0  0  0
    6.4521   -9.3637    0.0000 C   0  0  2  0  0  0  0  0  0  0  0  0
    7.8810   -9.3637    0.0000 C   0  0  1  0  0  0  0  0  0  0  0  0
    7.8810   -8.5388    0.0000 C   0  0  0  0  0  0  0  0  0  0  0  0
    7.1666   -8.1263    0.0000 C   0  0  0  0  0  0  0  0  0  0  0  0
    6.4521   -8.5388    0.0000 C   0  0  0  0  0  0  0  0  0  0  0  0
    8.5955   -9.7763    0.0000 C   0  0  0  0  0  0  0  0  0  0  0  0
    9.3100   -9.3637    0.0000 C   0  0  0  0  0  0  0  0  0  0  0  0
    9.3100   -8.5388    0.0000 C   0  0  2  0  0  0  0  0  0  0  0  0
    8.5955   -8.1263    0.0000 C   0  0  0  0  0  0  0  0  0  0  0  0
   10.0244   -8.1263    0.0000 C   0  0  0  0  0  0  0  0  0  0  0  0
   10.0244   -7.3012    0.0000 C   0  0  0  0  0  0  0  0  0  0  0  0
    9.3100   -6.8888    0.0000 C   0  0  2  0  0  0  0  0  0  0  0  0
    8.5955   -7.3012    0.0000 C   0  0  0  0  0  0  0  0  0  0  0  0
   10.0244   -8.9513    0.0000 C   0  0  0  0  0  0  0  0  0  0  0  0
   10.7389   -8.5388    0.0000 O   0  0  0  0  0  0  0  0  0  0  0  0
   10.0244   -9.7763    0.0000 O   0  0  0  0  0  0  0  0  0  0  0  0
    7.1666   -8.9513    0.0000 C   0  0  0  0  0  0  0  0  0  0  0  0
    5.7376   -8.9513    0.0000 C   0  0  0  0  0  0  0  0  0  0  0  0
    5.4356  -11.7282    0.0000 C   0  0  0  0  0  0  0  0  0  0  0  0
    3.5942  -11.0137    0.0000 O   0  0  0  0  0  0  0  0  0  0  0  0
    4.6106  -11.7282    0.0000 C   0  0  0  0  0  0  0  0  0  0  0  0
    7.8810  -10.1888    0.0000 C   0  0  0  0  0  0  0  0  0  0  0  0
    7.8810   -6.8888    0.0000 C   0  0  0  0  0  0  0  0  0  0  0  0
    9.3100   -6.0638    0.0000 C   0  0  0  0  0  0  0  0  0  0  0  0
    5.7376  -11.4262    0.0000 H   0  0  0  0  0  0  0  0  0  0  0  0
    6.4521  -10.1888    0.0000 H   0  0  0  0  0  0  0  0  0  0  0  0
    5.0231  -12.4427    0.0000 O   0  0  0  0  0  0  0  0  0  0  0  0
  1  2  1  0  0  0  0
  2  3  1  0  0  0  0
  3  4  1  0  0  0  0
  4  5  1  0  0  0  0
  5  6  1  0  0  0  0
  6  1  1  0  0  0  0
  4  7  1  0  0  0  0
  7  8  1  0  0  0  0
  8  9  1  0  0  0  0
  9 10  1  0  0  0  0
 10  5  1  0  0  0  0
  9 11  1  0  0  0  0
 11 12  1  0  0  0  0
 12 13  2  0  0  0  0
 13 14  1  0  0  0  0
 14 10  1  0  0  0  0
 11 15  1  0  0  0  0
 15 16  1  0  0  0  0
 16 17  1  0  0  0  0
 17 18  1  0  0  0  0
 18 12  1  0  0  0  0
 17 19  1  0  0  0  0
 19 20  1  0  0  0  0
 20 21  1  0  0  0  0
 21 22  1  0  0  0  0
 22 18  2  0  0  0  0
 17 23  1  1  0  0  0
 23 24  2  0  0  0  0
 23 25  1  0  0  0  0
  9 26  1  1  0  0  0
  5 27  1  1  0  0  0
  3 28  1  1  0  0  0
  2 29  1  1  0  0  0
  3 30  1  6  0  0  0
 11 31  1  6  0  0  0
 22 32  1  0  0  0  0
 21 33  1  6  0  0  0
  4 34  1  6  0  0  0
 10 35  1  6  0  0  0
 30 36  1  0  0  0  0
M  END
>  <cdx:fragmentId>
5

$$$$
