98290.cdx
  Mrv1902 05222410182D          

 80 88  0  0  0  0            999 V2000
   10.7662   -8.0460    0.0000 C   0  0  0  0  0  0  0  0  0  0  0  0
   10.7662   -8.8710    0.0000 C   0  0  1  0  0  0  0  0  0  0  0  0
   11.4807   -9.2835    0.0000 C   0  0  0  0  0  0  0  0  0  0  0  0
   12.1952   -8.8710    0.0000 C   0  0  1  0  0  0  0  0  0  0  0  0
   12.1952   -8.0460    0.0000 C   0  0  2  0  0  0  0  0  0  0  0  0
   11.4807   -7.6335    0.0000 C   0  0  0  0  0  0  0  0  0  0  0  0
   12.9096   -9.2835    0.0000 C   0  0  0  0  0  0  0  0  0  0  0  0
   13.6241   -8.8710    0.0000 C   0  0  0  0  0  0  0  0  0  0  0  0
   13.6241   -8.0460    0.0000 C   0  0  2  0  0  0  0  0  0  0  0  0
   12.9096   -7.6335    0.0000 C   0  0  2  0  0  0  0  0  0  0  0  0
   14.3386   -7.6335    0.0000 C   0  0  1  0  0  0  0  0  0  0  0  0
   14.3386   -6.8085    0.0000 C   0  0  0  0  0  0  0  0  0  0  0  0
   13.6241   -6.3960    0.0000 C   0  0  0  0  0  0  0  0  0  0  0  0
   12.9096   -6.8085    0.0000 C   0  0  0  0  0  0  0  0  0  0  0  0
   15.0531   -8.0460    0.0000 C   0  0  0  0  0  0  0  0  0  0  0  0
   15.7675   -7.6335    0.0000 C   0  0  0  0  0  0  0  0  0  0  0  0
   15.7675   -6.8085    0.0000 C   0  0  2  0  0  0  0  0  0  0  0  0
   15.0531   -6.3960    0.0000 C   0  0  1  0  0  0  0  0  0  0  0  0
   16.4820   -6.3960    0.0000 C   0  0  0  0  0  0  0  0  0  0  0  0
   16.4820   -5.5710    0.0000 C   0  0  0  0  0  0  0  0  0  0  0  0
   15.7675   -5.1585    0.0000 C   0  0  0  0  0  0  0  0  0  0  0  0
   15.0531   -5.5710    0.0000 C   0  0  0  0  0  0  0  0  0  0  0  0
   17.1965   -6.8085    0.0000 O   0  0  0  0  0  0  0  0  0  0  0  0
   18.6198   -8.4677    0.0000 C   0  0  2  0  0  0  0  0  0  0  0  0
   19.3338   -8.0543    0.0000 C   0  0  2  0  0  0  0  0  0  0  0  0
   19.3328   -7.2293    0.0000 C   0  0  1  0  0  0  0  0  0  0  0  0
   18.6178   -6.8177    0.0000 C   0  0  2  0  0  0  0  0  0  0  0  0
   13.6241   -7.2210    0.0000 C   0  0  0  0  0  0  0  0  0  0  0  0
   12.1952   -7.2210    0.0000 C   0  0  0  0  0  0  0  0  0  0  0  0
   11.8932   -9.9980    0.0000 C   0  0  0  0  0  0  0  0  0  0  0  0
   10.0518   -9.2835    0.0000 O   0  0  0  0  0  0  0  0  0  0  0  0
   11.0682   -9.9980    0.0000 C   0  0  0  0  0  0  0  0  0  0  0  0
   14.3386   -8.4585    0.0000 C   0  0  0  0  0  0  0  0  0  0  0  0
   17.9038   -7.2310    0.0000 C   0  0  1  0  0  0  0  0  0  0  0  0
   17.9048   -8.0560    0.0000 O   0  0  0  0  0  0  0  0  0  0  0  0
   18.6207   -9.2927    0.0000 C   0  0  0  0  0  0  0  0  0  0  0  0
   20.0468   -6.8160    0.0000 O   0  0  0  0  0  0  0  0  0  0  0  0
   19.3357   -9.7043    0.0000 O   0  0  0  0  0  0  0  0  0  0  0  0
   20.0487   -8.4660    0.0000 O   0  0  0  0  0  0  0  0  0  0  0  0
   18.6169   -5.9927    0.0000 O   0  0  0  0  0  0  0  0  0  0  0  0
   16.4820   -8.0460    0.0000 O   0  0  0  0  0  0  0  0  0  0  0  0
   16.4820   -7.2210    0.0000 C   0  0  0  0  0  0  0  0  0  0  0  0
    8.6203   -7.6057    0.0000 C   0  0  2  0  0  0  0  0  0  0  0  0
    7.9058   -8.0183    0.0000 C   0  0  2  0  0  0  0  0  0  0  0  0
    7.9059   -8.8433    0.0000 C   0  0  1  0  0  0  0  0  0  0  0  0
    8.6204   -9.2557    0.0000 C   0  0  2  0  0  0  0  0  0  0  0  0
    9.3349   -8.8431    0.0000 C   0  0  1  0  0  0  0  0  0  0  0  0
    9.3348   -8.0181    0.0000 O   0  0  0  0  0  0  0  0  0  0  0  0
    8.6202   -6.7807    0.0000 C   0  0  0  0  0  0  0  0  0  0  0  0
    7.1915   -9.2558    0.0000 O   0  0  0  0  0  0  0  0  0  0  0  0
    7.9057   -6.3683    0.0000 O   0  0  0  0  0  0  0  0  0  0  0  0
    7.1913   -7.6058    0.0000 O   0  0  0  0  0  0  0  0  0  0  0  0
    8.6205  -10.0807    0.0000 O   0  0  0  0  0  0  0  0  0  0  0  0
    9.3346   -6.3681    0.0000 O   0  0  0  0  0  0  0  0  0  0  0  0
    5.7626   -7.6043    0.0000 C   0  0  1  0  0  0  0  0  0  0  0  0
    5.0471   -8.0149    0.0000 C   0  0  1  0  0  0  0  0  0  0  0  0
    5.0449   -8.8399    0.0000 C   0  0  2  0  0  0  0  0  0  0  0  0
    5.7582   -9.2543    0.0000 C   0  0  2  0  0  0  0  0  0  0  0  0
    6.4738   -8.8437    0.0000 C   0  0  1  0  0  0  0  0  0  0  0  0
    6.4760   -8.0187    0.0000 O   0  0  0  0  0  0  0  0  0  0  0  0
    4.3337   -7.6005    0.0000 O   0  0  0  0  0  0  0  0  0  0  0  0
    5.7648   -6.7793    0.0000 C   0  0  0  0  0  0  0  0  0  0  0  0
    4.3293   -9.2505    0.0000 O   0  0  0  0  0  0  0  0  0  0  0  0
    5.7561  -10.0793    0.0000 O   0  0  0  0  0  0  0  0  0  0  0  0
    3.6092  -10.4729    0.0000 C   0  0  2  0  0  0  0  0  0  0  0  0
    3.6082  -11.2979    0.0000 C   0  0  2  0  0  0  0  0  0  0  0  0
    4.3222  -11.7112    0.0000 C   0  0  1  0  0  0  0  0  0  0  0  0
    5.0372  -11.2996    0.0000 C   0  0  2  0  0  0  0  0  0  0  0  0
    5.0382  -10.4746    0.0000 C   0  0  1  0  0  0  0  0  0  0  0  0
    4.3242  -10.0612    0.0000 O   0  0  0  0  0  0  0  0  0  0  0  0
    2.8953  -10.0595    0.0000 C   0  0  0  0  0  0  0  0  0  0  0  0
    4.3212  -12.5362    0.0000 O   0  0  0  0  0  0  0  0  0  0  0  0
    2.1803  -10.4711    0.0000 O   0  0  0  0  0  0  0  0  0  0  0  0
    2.8933  -11.7095    0.0000 O   0  0  0  0  0  0  0  0  0  0  0  0
    5.7511  -11.7130    0.0000 O   0  0  0  0  0  0  0  0  0  0  0  0
   12.1952   -9.6960    0.0000 H   0  0  0  0  0  0  0  0  0  0  0  0
   12.9096   -8.4585    0.0000 H   0  0  0  0  0  0  0  0  0  0  0  0
   15.0531   -7.2210    0.0000 H   0  0  0  0  0  0  0  0  0  0  0  0
   15.3550   -4.4440    0.0000 C   0  0  0  0  0  0  0  0  0  0  0  0
   16.1800   -4.4440    0.0000 C   0  0  0  0  0  0  0  0  0  0  0  0
  1  2  1  0  0  0  0
  2  3  1  0  0  0  0
  3  4  1  0  0  0  0
  4  5  1  0  0  0  0
  5  6  1  0  0  0  0
  6  1  1  0  0  0  0
  4  7  1  0  0  0  0
  7  8  1  0  0  0  0
  8  9  1  0  0  0  0
  9 10  1  0  0  0  0
 10  5  1  0  0  0  0
  9 11  1  0  0  0  0
 11 12  1  0  0  0  0
 12 13  2  0  0  0  0
 13 14  1  0  0  0  0
 14 10  1  0  0  0  0
 11 15  1  0  0  0  0
 15 16  1  0  0  0  0
 16 17  1  0  0  0  0
 17 18  1  0  0  0  0
 18 12  1  0  0  0  0
 17 19  1  0  0  0  0
 19 20  1  0  0  0  0
 20 21  1  0  0  0  0
 21 22  1  0  0  0  0
 22 18  1  0  0  0  0
 17 42  1  1  0  0  0
  9 28  1  1  0  0  0
  5 29  1  1  0  0  0
  3 30  1  0  0  0  0
  2 31  1  1  0  0  0
  3 32  1  0  0  0  0
 11 33  1  6  0  0  0
 24 25  1  0  0  0  0
 25 26  1  0  0  0  0
 26 27  1  0  0  0  0
 27 34  1  0  0  0  0
 34 35  1  0  0  0  0
 35 24  1  0  0  0  0
 24 36  1  1  0  0  0
 26 37  1  1  0  0  0
 36 38  1  0  0  0  0
 25 39  1  6  0  0  0
 27 40  1  6  0  0  0
 42 23  1  0  0  0  0
 34 23  1  1  0  0  0
 42 41  2  0  0  0  0
 43 44  1  0  0  0  0
 44 45  1  0  0  0  0
 45 46  1  0  0  0  0
 46 47  1  0  0  0  0
 47 48  1  0  0  0  0
 48 43  1  0  0  0  0
 43 49  1  1  0  0  0
 45 50  1  1  0  0  0
 49 51  1  0  0  0  0
 44 52  1  6  0  0  0
 46 53  1  6  0  0  0
 49 54  2  0  0  0  0
 55 56  1  0  0  0  0
 56 57  1  0  0  0  0
 57 58  1  0  0  0  0
 58 59  1  0  0  0  0
 59 60  1  0  0  0  0
 60 55  1  0  0  0  0
 56 61  1  1  0  0  0
 55 62  1  6  0  0  0
 57 63  1  6  0  0  0
 58 64  1  6  0  0  0
 59 50  1  1  0  0  0
 65 66  1  0  0  0  0
 66 67  1  0  0  0  0
 67 68  1  0  0  0  0
 68 69  1  0  0  0  0
 69 70  1  0  0  0  0
 70 65  1  0  0  0  0
 65 71  1  1  0  0  0
 67 72  1  1  0  0  0
 71 73  1  0  0  0  0
 66 74  1  6  0  0  0
 68 75  1  6  0  0  0
 69 64  1  1  0  0  0
 47 31  1  1  0  0  0
  4 76  1  6  0  0  0
 10 77  1  6  0  0  0
 18 78  1  1  0  0  0
 21 79  1  0  0  0  0
 21 80  1  0  0  0  0
M  END
>  <cdx:fragmentId>
5

$$$$
