98299.cdx
  Mrv1902 05222410262D          

 32 35  0  0  0  0            999 V2000
    3.5249   -7.5213    0.0000 C   0  0  0  0  0  0  0  0  0  0  0  0
    3.5249   -8.3462    0.0000 C   0  0  0  0  0  0  0  0  0  0  0  0
    4.2394   -8.7588    0.0000 C   0  0  0  0  0  0  0  0  0  0  0  0
    4.9539   -8.3462    0.0000 C   0  0  0  0  0  0  0  0  0  0  0  0
    4.9539   -7.5213    0.0000 C   0  0  0  0  0  0  0  0  0  0  0  0
    4.2394   -7.1088    0.0000 C   0  0  0  0  0  0  0  0  0  0  0  0
    5.6683   -8.7588    0.0000 C   0  0  0  0  0  0  0  0  0  0  0  0
    6.3828   -8.3462    0.0000 C   0  0  0  0  0  0  0  0  0  0  0  0
    6.3828   -7.5213    0.0000 C   0  0  0  0  0  0  0  0  0  0  0  0
    5.6683   -7.1088    0.0000 C   0  0  0  0  0  0  0  0  0  0  0  0
    7.0973   -8.7588    0.0000 C   0  0  0  0  0  0  0  0  0  0  0  0
    7.8118   -8.3462    0.0000 C   0  0  0  0  0  0  0  0  0  0  0  0
    7.8118   -7.5213    0.0000 C   0  0  0  0  0  0  0  0  0  0  0  0
    7.0973   -7.1088    0.0000 C   0  0  0  0  0  0  0  0  0  0  0  0
    4.2394   -6.2837    0.0000 O   0  0  0  0  0  0  0  0  0  0  0  0
    2.8105   -8.7588    0.0000 O   0  0  0  0  0  0  0  0  0  0  0  0
    5.6683   -6.2837    0.0000 O   0  0  0  0  0  0  0  0  0  0  0  0
    5.6683   -9.5838    0.0000 O   0  0  0  0  0  0  0  0  0  0  0  0
    7.0973   -6.2837    0.0000 O   0  0  0  0  0  0  0  0  0  0  0  0
    8.5262   -7.1088    0.0000 O   0  0  0  0  0  0  0  0  0  0  0  0
    8.5262   -8.7588    0.0000 C   0  0  0  0  0  0  0  0  0  0  0  0
    9.9584   -8.7563    0.0000 C   0  0  2  0  0  0  0  0  0  0  0  0
   10.6701   -8.3392    0.0000 C   0  0  2  0  0  0  0  0  0  0  0  0
   10.6647   -7.5142    0.0000 C   0  0  1  0  0  0  0  0  0  0  0  0
    9.9476   -7.1064    0.0000 C   0  0  2  0  0  0  0  0  0  0  0  0
    9.2358   -7.5235    0.0000 C   0  0  1  0  0  0  0  0  0  0  0  0
    9.2412   -8.3485    0.0000 O   0  0  0  0  0  0  0  0  0  0  0  0
    9.9637   -9.5813    0.0000 C   0  0  0  0  0  0  0  0  0  0  0  0
   11.3765   -7.0970    0.0000 O   0  0  0  0  0  0  0  0  0  0  0  0
   11.3873   -8.7470    0.0000 O   0  0  0  0  0  0  0  0  0  0  0  0
    9.9422   -6.2814    0.0000 O   0  0  0  0  0  0  0  0  0  0  0  0
   10.6809   -9.9891    0.0000 O   0  0  0  0  0  0  0  0  0  0  0  0
  1  2  2  0  0  0  0
  2  3  1  0  0  0  0
  3  4  2  0  0  0  0
  4  5  1  0  0  0  0
  5  6  2  0  0  0  0
  6  1  1  0  0  0  0
  4  7  1  0  0  0  0
  7  8  1  0  0  0  0
  8  9  2  0  0  0  0
  9 10  1  0  0  0  0
 10  5  1  0  0  0  0
  8 11  1  0  0  0  0
 11 12  2  0  0  0  0
 12 13  1  0  0  0  0
 13 14  2  0  0  0  0
 14  9  1  0  0  0  0
  6 15  1  0  0  0  0
  2 16  1  0  0  0  0
 10 17  2  0  0  0  0
  7 18  2  0  0  0  0
 14 19  1  0  0  0  0
 13 20  1  0  0  0  0
 12 21  1  0  0  0  0
 22 23  1  0  0  0  0
 23 24  1  0  0  0  0
 24 25  1  0  0  0  0
 25 26  1  0  0  0  0
 26 27  1  0  0  0  0
 27 22  1  0  0  0  0
 22 28  1  1  0  0  0
 24 29  1  1  0  0  0
 23 30  1  6  0  0  0
 25 31  1  6  0  0  0
 28 32  1  0  0  0  0
 26 20  1  1  0  0  0
M  END
>  <cdx:fragmentId>
5

$$$$
