98296.cdx
  Mrv1902 05222410192D          

 43 46  0  0  0  0            999 V2000
    4.0706  -10.9209    0.0000 C   0  0  1  0  0  0  0  0  0  0  0  0
    4.0706  -10.0959    0.0000 C   0  0  2  0  0  0  0  0  0  0  0  0
    4.7851   -9.6834    0.0000 C   0  0  0  0  0  0  0  0  0  0  0  0
    4.7851  -11.3334    0.0000 C   0  0  0  0  0  0  0  0  0  0  0  0
    5.1976  -12.0478    0.0000 C   0  0  0  0  0  0  0  0  0  0  0  0
    4.3726  -12.0478    0.0000 C   0  0  0  0  0  0  0  0  0  0  0  0
    5.4996  -10.9209    0.0000 C   0  0  2  0  0  0  0  0  0  0  0  0
    5.4996  -11.7459    0.0000 H   0  0  0  0  0  0  0  0  0  0  0  0
    6.2141  -11.3334    0.0000 C   0  0  0  0  0  0  0  0  0  0  0  0
    6.9285  -10.9209    0.0000 C   0  0  0  0  0  0  0  0  0  0  0  0
    6.9285  -10.0959    0.0000 C   0  0  0  0  0  0  0  0  0  0  0  0
    7.6430   -9.6834    0.0000 C   0  0  2  0  0  0  0  0  0  0  0  0
    7.6430  -10.5084    0.0000 C   0  0  0  0  0  0  0  0  0  0  0  0
    8.4276   -9.9383    0.0000 C   0  0  0  0  0  0  0  0  0  0  0  0
    8.9125   -9.2709    0.0000 C   0  0  0  0  0  0  0  0  0  0  0  0
    8.4276   -8.6034    0.0000 C   0  0  2  0  0  0  0  0  0  0  0  0
    8.6826   -7.8188    0.0000 C   0  0  1  0  0  0  0  0  0  0  0  0
    9.4895   -7.6473    0.0000 C   0  0  0  0  0  0  0  0  0  0  0  0
    9.7445   -6.8627    0.0000 C   0  0  0  0  0  0  0  0  0  0  0  0
   10.5514   -6.6911    0.0000 C   0  0  0  0  0  0  0  0  0  0  0  0
   10.8064   -5.9065    0.0000 C   0  0  0  0  0  0  0  0  0  0  0  0
   11.6134   -5.7350    0.0000 C   0  0  0  0  0  0  0  0  0  0  0  0
   10.6349   -5.0995    0.0000 C   0  0  0  0  0  0  0  0  0  0  0  0
    8.1305   -7.2057    0.0000 C   0  0  0  0  0  0  0  0  0  0  0  0
    7.6430   -8.8584    0.0000 C   0  0  2  0  0  0  0  0  0  0  0  0
    7.6430   -8.0334    0.0000 C   0  0  0  0  0  0  0  0  0  0  0  0
    6.9285   -8.4459    0.0000 C   0  0  0  0  0  0  0  0  0  0  0  0
    6.2141   -8.8584    0.0000 C   0  0  0  0  0  0  0  0  0  0  0  0
    6.2141   -9.6834    0.0000 C   0  0  0  0  0  0  0  0  0  0  0  0
    5.4996  -10.0959    0.0000 C   0  0  1  0  0  0  0  0  0  0  0  0
    5.4996   -9.2709    0.0000 C   0  0  0  0  0  0  0  0  0  0  0  0
   11.8683   -4.9504    0.0000 O   0  0  0  0  0  0  0  0  0  0  0  0
   12.1654   -6.3481    0.0000 O   0  0  0  0  0  0  0  0  0  0  0  0
    8.6826  -10.7229    0.0000 O   0  0  0  0  0  0  0  0  0  0  0  0
    5.4996   -8.4459    0.0000 O   0  0  0  0  0  0  0  0  0  0  0  0
    7.6430  -11.3334    0.0000 O   0  0  0  0  0  0  0  0  0  0  0  0
   10.0218   -5.6516    0.0000 O   0  0  0  0  0  0  0  0  0  0  0  0
    3.3562  -11.3334    0.0000 O   0  0  0  0  0  0  0  0  0  0  0  0
    3.3562   -9.6834    0.0000 O   0  0  0  0  0  0  0  0  0  0  0  0
    2.6417  -10.0959    0.0000 C   0  0  0  0  0  0  0  0  0  0  0  0
    2.6417  -10.9209    0.0000 O   0  0  0  0  0  0  0  0  0  0  0  0
    1.9272   -9.6834    0.0000 C   0  0  0  0  0  0  0  0  0  0  0  0
    9.2245   -8.3899    0.0000 H   0  0  0  0  0  0  0  0  0  0  0  0
  1  2  1  0  0  0  0
  2  3  1  0  0  0  0
  1  4  1  0  0  0  0
  4  5  1  0  0  0  0
  4  6  1  0  0  0  0
  4  7  1  0  0  0  0
  7  8  1  6  0  0  0
  7  9  1  0  0  0  0
  9 10  1  0  0  0  0
 10 11  1  0  0  0  0
 11 12  1  0  0  0  0
 12 13  1  6  0  0  0
 12 14  1  0  0  0  0
 14 15  1  0  0  0  0
 16 15  1  0  0  0  0
 16 17  1  0  0  0  0
 17 18  1  0  0  0  0
 18 19  1  0  0  0  0
 19 20  1  0  0  0  0
 20 21  1  0  0  0  0
 21 22  1  0  0  0  0
 21 23  1  0  0  0  0
 17 24  1  6  0  0  0
 16 25  1  0  0  0  0
 12 25  1  0  0  0  0
 25 26  1  1  0  0  0
 25 27  1  0  0  0  0
 27 28  1  0  0  0  0
 28 29  1  0  0  0  0
 11 29  2  0  0  0  0
 29 30  1  0  0  0  0
  3 30  1  0  0  0  0
  7 30  1  0  0  0  0
 30 31  1  1  0  0  0
 22 32  2  0  0  0  0
 22 33  1  0  0  0  0
 14 34  2  0  0  0  0
 28 35  2  0  0  0  0
 10 36  2  0  0  0  0
 21 37  1  0  0  0  0
  1 38  1  1  0  0  0
 40 41  2  0  0  0  0
 40 42  1  0  0  0  0
 39 40  1  0  0  0  0
  2 39  1  1  0  0  0
 16 43  1  6  0  0  0
M  END
>  <cdx:fragmentId>
5

$$$$
