98293.cdx
  Mrv1902 05222410192D          

 22 24  0  0  0  0            999 V2000
    4.4359   -9.2059    0.0000 C   0  0  0  0  0  0  0  0  0  0  0  0
    4.4431  -10.0309    0.0000 C   0  0  0  0  0  0  0  0  0  0  0  0
    5.1611  -10.4371    0.0000 C   0  0  0  0  0  0  0  0  0  0  0  0
    5.8720  -10.0184    0.0000 C   0  0  0  0  0  0  0  0  0  0  0  0
    5.8648   -9.1935    0.0000 C   0  0  0  0  0  0  0  0  0  0  0  0
    5.1467   -8.7872    0.0000 C   0  0  0  0  0  0  0  0  0  0  0  0
    6.5900  -10.4247    0.0000 C   0  0  0  0  0  0  0  0  0  0  0  0
    7.3009  -10.0059    0.0000 C   0  0  0  0  0  0  0  0  0  0  0  0
    7.2937   -9.1810    0.0000 C   0  0  0  0  0  0  0  0  0  0  0  0
    6.5756   -8.7747    0.0000 C   0  0  0  0  0  0  0  0  0  0  0  0
    8.0045   -8.7623    0.0000 C   0  0  0  0  0  0  0  0  0  0  0  0
    7.9973   -7.9373    0.0000 C   0  0  0  0  0  0  0  0  0  0  0  0
    7.2793   -7.5310    0.0000 C   0  0  0  0  0  0  0  0  0  0  0  0
    6.5684   -7.9498    0.0000 C   0  0  0  0  0  0  0  0  0  0  0  0
    7.2721   -6.7061    0.0000 O   0  0  0  0  0  0  0  0  0  0  0  0
    5.8504   -7.5435    0.0000 O   0  0  0  0  0  0  0  0  0  0  0  0
    5.1683  -11.2621    0.0000 C   0  0  0  0  0  0  0  0  0  0  0  0
    8.7226   -9.1685    0.0000 O   0  0  0  0  0  0  0  0  0  0  0  0
    9.4118   -6.2749    0.0000 O   0  0  0  0  0  0  0  0  0  0  0  0
    8.7009   -6.6936    0.0000 C   0  0  0  0  0  0  0  0  0  0  0  0
    9.4262   -7.9248    0.0000 C   0  0  0  0  0  0  0  0  0  0  0  0
    8.7081   -7.5186    0.0000 C   0  0  0  0  0  0  0  0  0  0  0  0
  1  2  2  0  0  0  0
  2  3  1  0  0  0  0
  3  4  2  0  0  0  0
  4  5  1  0  0  0  0
  5  6  2  0  0  0  0
  6  1  1  0  0  0  0
  4  7  1  0  0  0  0
  7  8  2  0  0  0  0
  8  9  1  0  0  0  0
  9 10  2  0  0  0  0
 10  5  1  0  0  0  0
  9 11  1  0  0  0  0
 11 12  2  0  0  0  0
 12 13  1  0  0  0  0
 13 14  1  0  0  0  0
 14 10  1  0  0  0  0
 13 15  2  0  0  0  0
 14 16  2  0  0  0  0
  3 17  1  0  0  0  0
 11 18  1  0  0  0  0
 20 19  1  0  0  0  0
 12 22  1  0  0  0  0
 22 20  1  0  0  0  0
 22 21  1  0  0  0  0
M  END
>  <cdx:fragmentId>
5

$$$$
