98294.cdx
  Mrv1902 05222410202D          

 22 25  0  0  0  0            999 V2000
    5.2437   -8.4013    0.0000 C   0  0  0  0  0  0  0  0  0  0  0  0
    5.2437   -9.2263    0.0000 C   0  0  0  0  0  0  0  0  0  0  0  0
    5.9581   -9.6387    0.0000 C   0  0  0  0  0  0  0  0  0  0  0  0
    6.6726   -9.2263    0.0000 C   0  0  0  0  0  0  0  0  0  0  0  0
    6.6726   -8.4013    0.0000 C   0  0  0  0  0  0  0  0  0  0  0  0
    5.9581   -7.9888    0.0000 C   0  0  0  0  0  0  0  0  0  0  0  0
    7.3871   -9.6387    0.0000 C   0  0  0  0  0  0  0  0  0  0  0  0
    8.1016   -9.2263    0.0000 C   0  0  0  0  0  0  0  0  0  0  0  0
    8.1016   -8.4013    0.0000 C   0  0  0  0  0  0  0  0  0  0  0  0
    7.3871   -7.9888    0.0000 C   0  0  0  0  0  0  0  0  0  0  0  0
    8.8160   -7.9888    0.0000 C   0  0  0  0  0  0  0  0  0  0  0  0
    8.8160   -7.1638    0.0000 C   0  0  0  0  0  0  0  0  0  0  0  0
    8.1016   -6.7512    0.0000 C   0  0  0  0  0  0  0  0  0  0  0  0
    7.3871   -7.1638    0.0000 C   0  0  0  0  0  0  0  0  0  0  0  0
    9.6007   -8.2437    0.0000 O   0  0  0  0  0  0  0  0  0  0  0  0
   10.0856   -7.5762    0.0000 C   0  0  0  0  0  0  0  0  0  0  0  0
    9.6007   -6.9088    0.0000 C   0  0  0  0  0  0  0  0  0  0  0  0
    8.1016   -5.9262    0.0000 O   0  0  0  0  0  0  0  0  0  0  0  0
    6.6726   -6.7512    0.0000 O   0  0  0  0  0  0  0  0  0  0  0  0
    9.8556   -6.1242    0.0000 C   0  0  0  0  0  0  0  0  0  0  0  0
    4.5292   -9.6387    0.0000 O   0  0  0  0  0  0  0  0  0  0  0  0
    5.9581  -10.4637    0.0000 C   0  0  0  0  0  0  0  0  0  0  0  0
  1  2  1  0  0  0  0
  2  3  2  0  0  0  0
  3  4  1  0  0  0  0
  4  5  2  0  0  0  0
  5  6  1  0  0  0  0
  6  1  2  0  0  0  0
  4  7  1  0  0  0  0
  7  8  2  0  0  0  0
  8  9  1  0  0  0  0
  9 10  2  0  0  0  0
 10  5  1  0  0  0  0
  9 11  1  0  0  0  0
 11 12  2  0  0  0  0
 12 13  1  0  0  0  0
 13 14  1  0  0  0  0
 14 10  1  0  0  0  0
 11 15  1  0  0  0  0
 15 16  1  0  0  0  0
 16 17  2  0  0  0  0
 17 12  1  0  0  0  0
 13 18  2  0  0  0  0
 14 19  2  0  0  0  0
 17 20  1  0  0  0  0
  2 21  1  0  0  0  0
  3 22  1  0  0  0  0
M  END
>  <cdx:fragmentId>
5

$$$$
