98292.cdx
  Mrv1902 05222410192D          

 22 25  0  0  0  0            999 V2000
    4.6249   -8.8138    0.0000 C   0  0  0  0  0  0  0  0  0  0  0  0
    4.6249   -9.6387    0.0000 C   0  0  0  0  0  0  0  0  0  0  0  0
    5.3394  -10.0512    0.0000 C   0  0  0  0  0  0  0  0  0  0  0  0
    6.0539   -9.6387    0.0000 C   0  0  0  0  0  0  0  0  0  0  0  0
    6.0539   -8.8138    0.0000 C   0  0  0  0  0  0  0  0  0  0  0  0
    5.3394   -8.4013    0.0000 C   0  0  0  0  0  0  0  0  0  0  0  0
    6.7683  -10.0512    0.0000 C   0  0  0  0  0  0  0  0  0  0  0  0
    7.4828   -9.6387    0.0000 C   0  0  0  0  0  0  0  0  0  0  0  0
    7.4828   -8.8138    0.0000 C   0  0  0  0  0  0  0  0  0  0  0  0
    6.7683   -8.4013    0.0000 C   0  0  0  0  0  0  0  0  0  0  0  0
    8.1973   -8.4013    0.0000 C   0  0  0  0  0  0  0  0  0  0  0  0
    8.1973   -7.5762    0.0000 C   0  0  0  0  0  0  0  0  0  0  0  0
    7.4828   -7.1638    0.0000 C   0  0  0  0  0  0  0  0  0  0  0  0
    6.7683   -7.5762    0.0000 C   0  0  0  0  0  0  0  0  0  0  0  0
    8.9819   -8.6562    0.0000 O   0  0  0  0  0  0  0  0  0  0  0  0
    9.4668   -7.9888    0.0000 C   0  0  0  0  0  0  0  0  0  0  0  0
    8.9819   -7.3213    0.0000 C   0  0  2  0  0  0  0  0  0  0  0  0
    4.9269  -10.7657    0.0000 C   0  0  0  0  0  0  0  0  0  0  0  0
    5.7519  -10.7657    0.0000 C   0  0  0  0  0  0  0  0  0  0  0  0
    7.4828   -6.3388    0.0000 O   0  0  0  0  0  0  0  0  0  0  0  0
    6.0539   -7.1638    0.0000 O   0  0  0  0  0  0  0  0  0  0  0  0
    9.2368   -6.5367    0.0000 C   0  0  0  0  0  0  0  0  0  0  0  0
  1  2  1  0  0  0  0
  2  3  1  0  0  0  0
  3  4  1  0  0  0  0
  4  5  2  0  0  0  0
  5  6  1  0  0  0  0
  6  1  2  0  0  0  0
  4  7  1  0  0  0  0
  7  8  2  0  0  0  0
  8  9  1  0  0  0  0
  9 10  2  0  0  0  0
 10  5  1  0  0  0  0
  9 11  1  0  0  0  0
 11 12  2  0  0  0  0
 12 13  1  0  0  0  0
 13 14  1  0  0  0  0
 14 10  1  0  0  0  0
 11 15  1  0  0  0  0
 15 16  1  0  0  0  0
 16 17  1  0  0  0  0
 17 12  1  0  0  0  0
  3 18  1  0  0  0  0
  3 19  1  0  0  0  0
 13 20  2  0  0  0  0
 14 21  2  0  0  0  0
 17 22  1  1  0  0  0
M  END
>  <cdx:fragmentId>
5

$$$$
