98303.cdx
  Mrv1902 05222410282D          

 33 36  0  0  0  0            999 V2000
   10.9291   -7.1310    0.0000 C   0  0  0  0  0  0  0  0  0  0  0  0
   10.9291   -7.9560    0.0000 C   0  0  0  0  0  0  0  0  0  0  0  0
   10.2146   -8.3685    0.0000 C   0  0  0  0  0  0  0  0  0  0  0  0
    9.5002   -7.9560    0.0000 C   0  0  0  0  0  0  0  0  0  0  0  0
    8.7857   -8.3685    0.0000 C   0  0  0  0  0  0  0  0  0  0  0  0
    8.0712   -7.9560    0.0000 C   0  0  0  0  0  0  0  0  0  0  0  0
    8.0712   -7.1310    0.0000 C   0  0  0  0  0  0  0  0  0  0  0  0
    8.7857   -6.7185    0.0000 C   0  0  0  0  0  0  0  0  0  0  0  0
    9.5002   -7.1310    0.0000 C   0  0  0  0  0  0  0  0  0  0  0  0
   10.2146   -6.7185    0.0000 O   0  0  0  0  0  0  0  0  0  0  0  0
    7.3567   -6.7185    0.0000 C   0  0  0  0  0  0  0  0  0  0  0  0
    6.6423   -7.1310    0.0000 C   0  0  0  0  0  0  0  0  0  0  0  0
    6.6423   -7.9560    0.0000 C   0  0  0  0  0  0  0  0  0  0  0  0
    7.3567   -8.3685    0.0000 C   0  0  0  0  0  0  0  0  0  0  0  0
    5.9278   -6.7185    0.0000 O   0  0  0  0  0  0  0  0  0  0  0  0
   11.6436   -6.7185    0.0000 C   0  0  0  0  0  0  0  0  0  0  0  0
    7.3567   -9.1935    0.0000 O   0  0  0  0  0  0  0  0  0  0  0  0
    8.7857   -9.1935    0.0000 O   0  0  0  0  0  0  0  0  0  0  0  0
   10.2146   -9.1935    0.0000 O   0  0  0  0  0  0  0  0  0  0  0  0
    6.6423   -9.6060    0.0000 C   0  0  2  0  0  0  0  0  0  0  0  0
    5.9278   -9.1935    0.0000 O   0  0  0  0  0  0  0  0  0  0  0  0
    5.2133   -9.6060    0.0000 C   0  0  1  0  0  0  0  0  0  0  0  0
    5.2133  -10.4310    0.0000 C   0  0  2  0  0  0  0  0  0  0  0  0
    5.9278  -10.8435    0.0000 C   0  0  1  0  0  0  0  0  0  0  0  0
    6.6423  -10.4310    0.0000 C   0  0  1  0  0  0  0  0  0  0  0  0
    4.4989   -9.1935    0.0000 C   0  0  0  0  0  0  0  0  0  0  0  0
    5.9278  -11.6685    0.0000 O   0  0  0  0  0  0  0  0  0  0  0  0
    4.4989  -10.8435    0.0000 O   0  0  0  0  0  0  0  0  0  0  0  0
    7.3567  -10.8435    0.0000 O   0  0  0  0  0  0  0  0  0  0  0  0
    3.7844   -9.6060    0.0000 O   0  0  0  0  0  0  0  0  0  0  0  0
    3.0699   -9.1935    0.0000 C   0  0  0  0  0  0  0  0  0  0  0  0
    2.3554   -9.6060    0.0000 C   0  0  0  0  0  0  0  0  0  0  0  0
    3.0699   -8.3685    0.0000 O   0  0  0  0  0  0  0  0  0  0  0  0
  1  2  2  0  0  0  0
  2  3  1  0  0  0  0
  3  4  2  0  0  0  0
  4  5  1  0  0  0  0
  5  6  2  0  0  0  0
  6  7  1  0  0  0  0
  7  8  1  0  0  0  0
  8  9  2  0  0  0  0
  4  9  1  0  0  0  0
  9 10  1  0  0  0  0
  1 10  1  0  0  0  0
 11 12  1  0  0  0  0
 12 13  1  0  0  0  0
 13 14  2  0  0  0  0
 14  6  1  0  0  0  0
 11  7  2  0  0  0  0
 12 15  2  0  0  0  0
  1 16  1  0  0  0  0
 14 17  1  0  0  0  0
  5 18  1  0  0  0  0
  3 19  1  0  0  0  0
 20 17  1  1  0  0  0
 20 21  1  0  0  0  0
 21 22  1  0  0  0  0
 22 23  1  0  0  0  0
 23 24  1  0  0  0  0
 24 25  1  0  0  0  0
 25 20  1  0  0  0  0
 22 26  1  1  0  0  0
 24 27  1  1  0  0  0
 23 28  1  6  0  0  0
 25 29  1  6  0  0  0
 26 30  1  0  0  0  0
 30 31  1  0  0  0  0
 31 32  1  0  0  0  0
 31 33  2  0  0  0  0
M  END
>  <cdx:fragmentId>
5

$$$$
