98301.cdx
  Mrv1902 05222410272D          

 36 41  0  0  0  0            999 V2000
    8.4220  -11.2147    0.0000 O   0  0  0  0  0  0  0  0  0  0  0  0
    5.5642  -11.2147    0.0000 O   0  0  0  0  0  0  0  0  0  0  0  0
    9.8510   -8.7397    0.0000 C   0  0  0  0  0  0  0  0  0  0  0  0
    6.9931  -11.2147    0.0000 O   0  0  0  0  0  0  0  0  0  0  0  0
    7.7076   -9.9772    0.0000 C   0  0  0  0  0  0  0  0  0  0  0  0
    6.9931  -10.3897    0.0000 C   0  0  0  0  0  0  0  0  0  0  0  0
    6.2786   -9.9772    0.0000 C   0  0  0  0  0  0  0  0  0  0  0  0
    5.5642  -10.3897    0.0000 C   0  0  0  0  0  0  0  0  0  0  0  0
    4.8497   -9.9772    0.0000 C   0  0  0  0  0  0  0  0  0  0  0  0
    4.8497   -9.1522    0.0000 C   0  0  0  0  0  0  0  0  0  0  0  0
    5.5642   -8.7397    0.0000 C   0  0  0  0  0  0  0  0  0  0  0  0
    6.2786   -9.1522    0.0000 C   0  0  0  0  0  0  0  0  0  0  0  0
    6.9931   -8.7397    0.0000 C   0  0  0  0  0  0  0  0  0  0  0  0
    7.7076   -9.1522    0.0000 C   0  0  0  0  0  0  0  0  0  0  0  0
    8.4220   -8.7397    0.0000 C   0  0  0  0  0  0  0  0  0  0  0  0
    9.1365   -9.1522    0.0000 C   0  0  0  0  0  0  0  0  0  0  0  0
    9.1365   -9.9772    0.0000 C   0  0  0  0  0  0  0  0  0  0  0  0
    8.4220  -10.3897    0.0000 C   0  0  0  0  0  0  0  0  0  0  0  0
    5.5705   -5.4397    0.0000 O   0  0  0  0  0  0  0  0  0  0  0  0
    8.4284   -5.4397    0.0000 O   0  0  0  0  0  0  0  0  0  0  0  0
    4.1416   -7.9147    0.0000 C   0  0  0  0  0  0  0  0  0  0  0  0
    6.9994   -5.4397    0.0000 O   0  0  0  0  0  0  0  0  0  0  0  0
    6.2850   -6.6772    0.0000 C   0  0  0  0  0  0  0  0  0  0  0  0
    6.9994   -6.2647    0.0000 C   0  0  0  0  0  0  0  0  0  0  0  0
    7.7139   -6.6772    0.0000 C   0  0  0  0  0  0  0  0  0  0  0  0
    8.4284   -6.2647    0.0000 C   0  0  0  0  0  0  0  0  0  0  0  0
    9.1429   -6.6772    0.0000 C   0  0  0  0  0  0  0  0  0  0  0  0
    9.1429   -7.5022    0.0000 C   0  0  0  0  0  0  0  0  0  0  0  0
    8.4284   -7.9147    0.0000 C   0  0  0  0  0  0  0  0  0  0  0  0
    7.7139   -7.5022    0.0000 C   0  0  0  0  0  0  0  0  0  0  0  0
    6.9994   -7.9147    0.0000 C   0  0  0  0  0  0  0  0  0  0  0  0
    6.2850   -7.5022    0.0000 C   0  0  0  0  0  0  0  0  0  0  0  0
    5.5705   -7.9147    0.0000 C   0  0  0  0  0  0  0  0  0  0  0  0
    4.8560   -7.5022    0.0000 C   0  0  0  0  0  0  0  0  0  0  0  0
    4.8560   -6.6772    0.0000 C   0  0  0  0  0  0  0  0  0  0  0  0
    5.5705   -6.2647    0.0000 C   0  0  0  0  0  0  0  0  0  0  0  0
 18  1  1  0  0  0  0
  8  2  1  0  0  0  0
 16  3  1  0  0  0  0
  6  4  2  0  0  0  0
 18  5  2  0  0  0  0
 14  5  1  0  0  0  0
  6  5  1  0  0  0  0
  7  6  1  0  0  0  0
 12  7  2  0  0  0  0
  8  7  1  0  0  0  0
  9  8  2  0  0  0  0
 10  9  1  0  0  0  0
 11 10  2  0  0  0  0
 12 11  1  0  0  0  0
 13 12  1  0  0  0  0
 14 13  1  0  0  0  0
 15 14  2  0  0  0  0
 16 15  1  0  0  0  0
 17 16  2  0  0  0  0
 18 17  1  0  0  0  0
 36 19  1  0  0  0  0
 26 20  1  0  0  0  0
 34 21  1  0  0  0  0
 24 22  2  0  0  0  0
 36 23  2  0  0  0  0
 32 23  1  0  0  0  0
 24 23  1  0  0  0  0
 25 24  1  0  0  0  0
 30 25  2  0  0  0  0
 26 25  1  0  0  0  0
 27 26  2  0  0  0  0
 28 27  1  0  0  0  0
 29 28  2  0  0  0  0
 30 29  1  0  0  0  0
 31 30  1  0  0  0  0
 32 31  1  0  0  0  0
 33 32  2  0  0  0  0
 34 33  1  0  0  0  0
 35 34  2  0  0  0  0
 36 35  1  0  0  0  0
 13 31  1  0  0  0  0
M  END
>  <cdx:fragmentId>
134

$$$$
