98307.cdx
  Mrv1902 05222410262D          

 62 67  0  0  0  0            999 V2000
   10.9220  -14.3542    0.0000 C   0  0  0  0  0  0  0  0  0  0  0  0
   11.6365  -14.7667    0.0000 C   0  0  0  0  0  0  0  0  0  0  0  0
    9.4931  -14.3542    0.0000 C   0  0  0  0  0  0  0  0  0  0  0  0
   10.2075  -14.7667    0.0000 C   0  0  0  0  0  0  0  0  0  0  0  0
   10.2075  -15.5917    0.0000 C   0  0  0  0  0  0  0  0  0  0  0  0
    9.4931  -16.0042    0.0000 C   0  0  0  0  0  0  0  0  0  0  0  0
    8.7786  -15.5917    0.0000 C   0  0  0  0  0  0  0  0  0  0  0  0
    8.0641  -16.0042    0.0000 C   0  0  0  0  0  0  0  0  0  0  0  0
    7.3497  -15.5917    0.0000 C   0  0  0  0  0  0  0  0  0  0  0  0
    7.3497  -14.7667    0.0000 C   0  0  0  0  0  0  0  0  0  0  0  0
    8.0641  -14.3542    0.0000 C   0  0  0  0  0  0  0  0  0  0  0  0
    8.7786  -14.7667    0.0000 C   0  0  0  0  0  0  0  0  0  0  0  0
   10.9220  -16.0042    0.0000 C   0  0  0  0  0  0  0  0  0  0  0  0
    6.6352  -16.0042    0.0000 O   0  0  0  0  0  0  0  0  0  0  0  0
    5.9207  -15.5917    0.0000 C   0  0  0  0  0  0  0  0  0  0  0  0
    8.0641  -13.5292    0.0000 O   0  0  0  0  0  0  0  0  0  0  0  0
    9.4931  -13.5292    0.0000 O   0  0  0  0  0  0  0  0  0  0  0  0
   10.9220  -13.5292    0.0000 O   0  0  0  0  0  0  0  0  0  0  0  0
    6.6613  -11.8833    0.0000 C   0  0  2  0  0  0  0  0  0  0  0  0
    5.9454  -12.2933    0.0000 C   0  0  2  0  0  0  0  0  0  0  0  0
    5.9425  -13.1183    0.0000 C   0  0  1  0  0  0  0  0  0  0  0  0
    6.6555  -13.5333    0.0000 C   0  0  2  0  0  0  0  0  0  0  0  0
    7.3714  -13.1233    0.0000 C   0  0  1  0  0  0  0  0  0  0  0  0
    7.3743  -12.2983    0.0000 O   0  0  0  0  0  0  0  0  0  0  0  0
    6.6642  -11.0583    0.0000 C   0  0  0  0  0  0  0  0  0  0  0  0
    5.2266  -13.5283    0.0000 O   0  0  0  0  0  0  0  0  0  0  0  0
    5.2324  -11.8783    0.0000 O   0  0  0  0  0  0  0  0  0  0  0  0
    6.6526  -14.3582    0.0000 O   0  0  0  0  0  0  0  0  0  0  0  0
    5.9512  -10.6433    0.0000 O   0  0  0  0  0  0  0  0  0  0  0  0
    6.6816   -8.5686    0.0000 C   0  0  2  0  0  0  0  0  0  0  0  0
    5.9697   -8.1516    0.0000 C   0  0  2  0  0  0  0  0  0  0  0  0
    5.2527   -8.5596    0.0000 C   0  0  1  0  0  0  0  0  0  0  0  0
    5.2475   -9.3846    0.0000 C   0  0  2  0  0  0  0  0  0  0  0  0
    5.9594   -9.8016    0.0000 C   0  0  1  0  0  0  0  0  0  0  0  0
    6.6765   -9.3935    0.0000 O   0  0  0  0  0  0  0  0  0  0  0  0
    7.3986   -8.1605    0.0000 C   0  0  0  0  0  0  0  0  0  0  0  0
    4.5408   -8.1427    0.0000 O   0  0  0  0  0  0  0  0  0  0  0  0
    5.9749   -7.3266    0.0000 O   0  0  0  0  0  0  0  0  0  0  0  0
    4.5305   -9.7926    0.0000 O   0  0  0  0  0  0  0  0  0  0  0  0
    7.4038   -7.3356    0.0000 O   0  0  0  0  0  0  0  0  0  0  0  0
    5.2557   -6.0701    0.0000 C   0  0  2  0  0  0  0  0  0  0  0  0
    4.5438   -5.6532    0.0000 C   0  0  2  0  0  0  0  0  0  0  0  0
    3.8268   -6.0612    0.0000 C   0  0  1  0  0  0  0  0  0  0  0  0
    3.8217   -6.8862    0.0000 C   0  0  2  0  0  0  0  0  0  0  0  0
    4.5335   -7.3031    0.0000 C   0  0  1  0  0  0  0  0  0  0  0  0
    5.2506   -6.8951    0.0000 O   0  0  0  0  0  0  0  0  0  0  0  0
    5.9728   -5.6621    0.0000 C   0  0  0  0  0  0  0  0  0  0  0  0
    3.1149   -5.6442    0.0000 O   0  0  0  0  0  0  0  0  0  0  0  0
    4.5490   -4.8282    0.0000 O   0  0  0  0  0  0  0  0  0  0  0  0
    3.1046   -7.2942    0.0000 O   0  0  0  0  0  0  0  0  0  0  0  0
    5.9779   -4.8371    0.0000 O   0  0  0  0  0  0  0  0  0  0  0  0
    8.1480   -4.4186    0.0000 C   0  0  2  0  0  0  0  0  0  0  0  0
    8.1543   -3.5936    0.0000 C   0  0  2  0  0  0  0  0  0  0  0  0
    7.4430   -3.1757    0.0000 C   0  0  1  0  0  0  0  0  0  0  0  0
    6.7254   -3.5827    0.0000 C   0  0  2  0  0  0  0  0  0  0  0  0
    6.7191   -4.4077    0.0000 C   0  0  1  0  0  0  0  0  0  0  0  0
    7.4304   -4.8256    0.0000 O   0  0  0  0  0  0  0  0  0  0  0  0
    8.8593   -4.8365    0.0000 C   0  0  0  0  0  0  0  0  0  0  0  0
    7.4493   -2.3507    0.0000 O   0  0  0  0  0  0  0  0  0  0  0  0
    8.8719   -3.1866    0.0000 O   0  0  0  0  0  0  0  0  0  0  0  0
    6.0141   -3.1648    0.0000 O   0  0  0  0  0  0  0  0  0  0  0  0
    9.5769   -4.4295    0.0000 O   0  0  0  0  0  0  0  0  0  0  0  0
  1  2  1  0  0  0  0
  3  4  1  0  0  0  0
  4  5  2  0  0  0  0
  5  6  1  0  0  0  0
  6  7  2  0  0  0  0
  7  8  1  0  0  0  0
  8  9  2  0  0  0  0
  9 10  1  0  0  0  0
 10 11  2  0  0  0  0
 11 12  1  0  0  0  0
  3 12  2  0  0  0  0
  7 12  1  0  0  0  0
  5 13  1  0  0  0  0
 14 15  1  0  0  0  0
  9 14  1  0  0  0  0
 11 16  1  0  0  0  0
  3 17  1  0  0  0  0
  1  4  1  0  0  0  0
  1 18  2  0  0  0  0
 19 20  1  0  0  0  0
 20 21  1  0  0  0  0
 21 22  1  0  0  0  0
 22 23  1  0  0  0  0
 23 24  1  0  0  0  0
 24 19  1  0  0  0  0
 19 25  1  1  0  0  0
 21 26  1  1  0  0  0
 20 27  1  6  0  0  0
 22 28  1  6  0  0  0
 25 29  1  0  0  0  0
 30 31  1  0  0  0  0
 31 32  1  0  0  0  0
 32 33  1  0  0  0  0
 33 34  1  0  0  0  0
 34 35  1  0  0  0  0
 35 30  1  0  0  0  0
 30 36  1  1  0  0  0
 32 37  1  1  0  0  0
 31 38  1  6  0  0  0
 33 39  1  6  0  0  0
 36 40  1  0  0  0  0
 34 29  1  1  0  0  0
 41 42  1  0  0  0  0
 42 43  1  0  0  0  0
 43 44  1  0  0  0  0
 44 45  1  0  0  0  0
 45 46  1  0  0  0  0
 46 41  1  0  0  0  0
 41 47  1  1  0  0  0
 43 48  1  1  0  0  0
 42 49  1  6  0  0  0
 44 50  1  6  0  0  0
 47 51  1  0  0  0  0
 52 53  1  0  0  0  0
 53 54  1  0  0  0  0
 54 55  1  0  0  0  0
 55 56  1  0  0  0  0
 56 57  1  0  0  0  0
 57 52  1  0  0  0  0
 52 58  1  1  0  0  0
 54 59  1  1  0  0  0
 53 60  1  6  0  0  0
 55 61  1  6  0  0  0
 58 62  1  0  0  0  0
 56 51  1  1  0  0  0
 45 37  1  1  0  0  0
 23 16  1  1  0  0  0
M  END
>  <cdx:fragmentId>
149

$$$$
