98305.cdx
  Mrv1902 05222410272D          

 30 33  0  0  0  0            999 V2000
   10.5579   -6.2785    0.0000 C   0  0  0  0  0  0  0  0  0  0  0  0
   10.5579   -7.1035    0.0000 C   0  0  0  0  0  0  0  0  0  0  0  0
    9.8434   -7.5160    0.0000 C   0  0  0  0  0  0  0  0  0  0  0  0
    9.1289   -7.1035    0.0000 C   0  0  0  0  0  0  0  0  0  0  0  0
    8.4144   -7.5160    0.0000 C   0  0  0  0  0  0  0  0  0  0  0  0
    7.7000   -7.1035    0.0000 C   0  0  0  0  0  0  0  0  0  0  0  0
    7.7000   -6.2785    0.0000 C   0  0  0  0  0  0  0  0  0  0  0  0
    8.4144   -5.8660    0.0000 C   0  0  0  0  0  0  0  0  0  0  0  0
    9.1289   -6.2785    0.0000 C   0  0  0  0  0  0  0  0  0  0  0  0
    9.8434   -5.8660    0.0000 O   0  0  0  0  0  0  0  0  0  0  0  0
    6.9855   -5.8660    0.0000 C   0  0  0  0  0  0  0  0  0  0  0  0
    6.2710   -6.2785    0.0000 C   0  0  0  0  0  0  0  0  0  0  0  0
    6.2710   -7.1035    0.0000 C   0  0  0  0  0  0  0  0  0  0  0  0
    6.9855   -7.5160    0.0000 C   0  0  0  0  0  0  0  0  0  0  0  0
    5.5566   -5.8660    0.0000 O   0  0  0  0  0  0  0  0  0  0  0  0
   11.2723   -5.8660    0.0000 C   0  0  0  0  0  0  0  0  0  0  0  0
    6.9855   -8.3410    0.0000 O   0  0  0  0  0  0  0  0  0  0  0  0
    8.4144   -8.3410    0.0000 O   0  0  0  0  0  0  0  0  0  0  0  0
    9.8434   -8.3410    0.0000 O   0  0  0  0  0  0  0  0  0  0  0  0
    6.2710   -8.7535    0.0000 C   0  0  2  0  0  0  0  0  0  0  0  0
    5.5566   -8.3410    0.0000 O   0  0  0  0  0  0  0  0  0  0  0  0
    4.8421   -8.7535    0.0000 C   0  0  1  0  0  0  0  0  0  0  0  0
    4.8421   -9.5785    0.0000 C   0  0  2  0  0  0  0  0  0  0  0  0
    5.5566   -9.9910    0.0000 C   0  0  1  0  0  0  0  0  0  0  0  0
    6.2710   -9.5785    0.0000 C   0  0  1  0  0  0  0  0  0  0  0  0
    4.1276   -8.3410    0.0000 C   0  0  0  0  0  0  0  0  0  0  0  0
    5.5566  -10.8160    0.0000 O   0  0  0  0  0  0  0  0  0  0  0  0
    4.1276   -9.9910    0.0000 O   0  0  0  0  0  0  0  0  0  0  0  0
    6.9855   -9.9910    0.0000 O   0  0  0  0  0  0  0  0  0  0  0  0
    3.4131   -8.7535    0.0000 O   0  0  0  0  0  0  0  0  0  0  0  0
  1  2  2  0  0  0  0
  2  3  1  0  0  0  0
  3  4  2  0  0  0  0
  4  5  1  0  0  0  0
  5  6  2  0  0  0  0
  6  7  1  0  0  0  0
  7  8  1  0  0  0  0
  8  9  2  0  0  0  0
  4  9  1  0  0  0  0
  9 10  1  0  0  0  0
  1 10  1  0  0  0  0
 11 12  1  0  0  0  0
 12 13  1  0  0  0  0
 13 14  2  0  0  0  0
 14  6  1  0  0  0  0
 11  7  2  0  0  0  0
 12 15  2  0  0  0  0
  1 16  1  0  0  0  0
 14 17  1  0  0  0  0
  5 18  1  0  0  0  0
  3 19  1  0  0  0  0
 20 17  1  1  0  0  0
 20 21  1  0  0  0  0
 21 22  1  0  0  0  0
 22 23  1  0  0  0  0
 23 24  1  0  0  0  0
 24 25  1  0  0  0  0
 25 20  1  0  0  0  0
 22 26  1  1  0  0  0
 24 27  1  1  0  0  0
 23 28  1  6  0  0  0
 25 29  1  6  0  0  0
 26 30  1  0  0  0  0
M  END
>  <cdx:fragmentId>
5

$$$$
