98309.cdx
  Mrv1902 05222410192D          

 26 27  0  0  0  0            999 V2000
    4.5562   -6.5725    0.0000 C   0  0  0  0  0  0  0  0  0  0  0  0
    4.5562   -7.3975    0.0000 C   0  0  0  0  0  0  0  0  0  0  0  0
    5.2706   -7.8100    0.0000 C   0  0  0  0  0  0  0  0  0  0  0  0
    5.9851   -7.3975    0.0000 C   0  0  0  0  0  0  0  0  0  0  0  0
    5.9851   -6.5725    0.0000 C   0  0  0  0  0  0  0  0  0  0  0  0
    5.2706   -6.1600    0.0000 C   0  0  0  0  0  0  0  0  0  0  0  0
    3.8417   -6.1600    0.0000 O   0  0  0  0  0  0  0  0  0  0  0  0
    6.6996   -7.8100    0.0000 C   0  0  0  0  0  0  0  0  0  0  0  0
    3.8417   -7.8100    0.0000 O   0  0  0  0  0  0  0  0  0  0  0  0
    6.6996   -8.6350    0.0000 C   0  0  0  0  0  0  0  0  0  0  0  0
    7.1167   -9.3468    0.0000 C   0  0  0  0  0  0  0  0  0  0  0  0
    6.7089  -10.0639    0.0000 O   0  0  0  0  0  0  0  0  0  0  0  0
    7.9417   -9.3414    0.0000 O   0  0  0  0  0  0  0  0  0  0  0  0
    7.4141   -7.3975    0.0000 C   0  0  0  0  0  0  0  0  0  0  0  0
    8.1285   -7.8100    0.0000 C   0  0  0  0  0  0  0  0  0  0  0  0
    8.1285   -8.6350    0.0000 C   0  0  0  0  0  0  0  0  0  0  0  0
    8.8430   -9.0475    0.0000 C   0  0  0  0  0  0  0  0  0  0  0  0
    9.5575   -8.6350    0.0000 C   0  0  0  0  0  0  0  0  0  0  0  0
    9.5575   -7.8100    0.0000 C   0  0  0  0  0  0  0  0  0  0  0  0
    8.8430   -7.3975    0.0000 C   0  0  0  0  0  0  0  0  0  0  0  0
   10.2719   -9.0475    0.0000 O   0  0  0  0  0  0  0  0  0  0  0  0
   10.2719   -7.3975    0.0000 O   0  0  0  0  0  0  0  0  0  0  0  0
    6.1917   -5.8325    0.0000 O   0  0  0  0  0  0  0  0  0  0  0  0
    7.4438   -5.1439    0.0000 O   0  0  0  0  0  0  0  0  0  0  0  0
    7.0165   -5.8496    0.0000 C   0  0  0  0  0  0  0  0  0  0  0  0
    7.4141   -6.5725    0.0000 C   0  0  0  0  0  0  0  0  0  0  0  0
  1  2  2  0  0  0  0
  2  3  1  0  0  0  0
  3  4  2  0  0  0  0
  4  5  1  0  0  0  0
  5  6  2  0  0  0  0
  6  1  1  0  0  0  0
  1  7  1  0  0  0  0
  4  8  1  0  0  0  0
  2  9  1  0  0  0  0
  8 10  2  0  0  0  0
 10 11  1  0  0  0  0
 11 12  2  0  0  0  0
 11 13  1  0  0  0  0
  8 14  1  0  0  0  0
 14 15  1  0  0  0  0
 15 16  2  0  0  0  0
 16 17  1  0  0  0  0
 17 18  2  0  0  0  0
 18 19  1  0  0  0  0
 19 20  2  0  0  0  0
 20 15  1  0  0  0  0
 18 21  1  0  0  0  0
 19 22  1  0  0  0  0
 25 23  1  0  0  0  0
 14 26  2  0  0  0  0
 25 24  2  0  0  0  0
 26 25  1  0  0  0  0
M  END
>  <cdx:fragmentId>
5

$$$$
