98302.cdx
  Mrv1902 05222410282D          

 63 69  0  0  0  0            999 V2000
    9.6520  -11.9710    0.0000 C   0  0  0  0  0  0  0  0  0  0  0  0
   10.2235  -12.3010    0.0000 C   0  0  0  0  0  0  0  0  0  0  0  0
   10.2235  -12.9610    0.0000 C   0  0  0  0  0  0  0  0  0  0  0  0
    9.6520  -13.2910    0.0000 C   0  0  0  0  0  0  0  0  0  0  0  0
    9.0804  -12.9610    0.0000 C   0  0  0  0  0  0  0  0  0  0  0  0
    8.5088  -13.2910    0.0000 C   0  0  0  0  0  0  0  0  0  0  0  0
    7.9372  -12.9610    0.0000 C   0  0  0  0  0  0  0  0  0  0  0  0
    7.3657  -13.2910    0.0000 C   0  0  0  0  0  0  0  0  0  0  0  0
    6.7941  -12.9610    0.0000 C   0  0  0  0  0  0  0  0  0  0  0  0
    6.7941  -12.3010    0.0000 C   0  0  0  0  0  0  0  0  0  0  0  0
    7.3657  -11.9710    0.0000 C   0  0  0  0  0  0  0  0  0  0  0  0
    7.9372  -12.3010    0.0000 C   0  0  0  0  0  0  0  0  0  0  0  0
    8.5088  -11.9710    0.0000 C   0  0  0  0  0  0  0  0  0  0  0  0
    9.0804  -12.3010    0.0000 C   0  0  0  0  0  0  0  0  0  0  0  0
    8.5088  -11.3110    0.0000 O   0  0  0  0  0  0  0  0  0  0  0  0
    8.5088  -13.9510    0.0000 O   0  0  0  0  0  0  0  0  0  0  0  0
   10.7951  -13.2910    0.0000 C   0  0  0  0  0  0  0  0  0  0  0  0
    7.3657  -11.3110    0.0000 O   0  0  0  0  0  0  0  0  0  0  0  0
    9.6520  -11.3110    0.0000 O   0  0  0  0  0  0  0  0  0  0  0  0
    6.2290   -9.9886    0.0000 C   0  0  2  0  0  0  0  0  0  0  0  0
    5.6563  -10.3166    0.0000 C   0  0  2  0  0  0  0  0  0  0  0  0
    5.6540  -10.9766    0.0000 C   0  0  1  0  0  0  0  0  0  0  0  0
    6.2244  -11.3086    0.0000 C   0  0  2  0  0  0  0  0  0  0  0  0
    6.7971  -10.9806    0.0000 C   0  0  1  0  0  0  0  0  0  0  0  0
    6.7994  -10.3206    0.0000 O   0  0  0  0  0  0  0  0  0  0  0  0
    6.2313   -9.3286    0.0000 C   0  0  0  0  0  0  0  0  0  0  0  0
    5.0812  -11.3046    0.0000 O   0  0  0  0  0  0  0  0  0  0  0  0
    5.0859   -9.9846    0.0000 O   0  0  0  0  0  0  0  0  0  0  0  0
    6.2221  -11.9686    0.0000 O   0  0  0  0  0  0  0  0  0  0  0  0
    5.6609   -8.9966    0.0000 O   0  0  0  0  0  0  0  0  0  0  0  0
    6.2453   -7.3368    0.0000 C   0  0  2  0  0  0  0  0  0  0  0  0
    5.6758   -7.0032    0.0000 C   0  0  2  0  0  0  0  0  0  0  0  0
    5.1021   -7.3297    0.0000 C   0  0  1  0  0  0  0  0  0  0  0  0
    5.0980   -7.9896    0.0000 C   0  0  2  0  0  0  0  0  0  0  0  0
    5.6675   -8.3232    0.0000 C   0  0  1  0  0  0  0  0  0  0  0  0
    6.2411   -7.9968    0.0000 O   0  0  0  0  0  0  0  0  0  0  0  0
    6.8189   -7.0104    0.0000 C   0  0  0  0  0  0  0  0  0  0  0  0
    4.5326   -6.9961    0.0000 O   0  0  0  0  0  0  0  0  0  0  0  0
    5.6799   -6.3433    0.0000 O   0  0  0  0  0  0  0  0  0  0  0  0
    4.5244   -8.3161    0.0000 O   0  0  0  0  0  0  0  0  0  0  0  0
    6.8230   -6.3504    0.0000 O   0  0  0  0  0  0  0  0  0  0  0  0
    5.1046   -5.3380    0.0000 C   0  0  2  0  0  0  0  0  0  0  0  0
    4.5351   -5.0045    0.0000 C   0  0  2  0  0  0  0  0  0  0  0  0
    3.9614   -5.3309    0.0000 C   0  0  1  0  0  0  0  0  0  0  0  0
    3.9573   -5.9909    0.0000 C   0  0  2  0  0  0  0  0  0  0  0  0
    4.5268   -6.3245    0.0000 C   0  0  1  0  0  0  0  0  0  0  0  0
    5.1004   -5.9980    0.0000 O   0  0  0  0  0  0  0  0  0  0  0  0
    5.6782   -5.0116    0.0000 C   0  0  0  0  0  0  0  0  0  0  0  0
    3.3919   -4.9973    0.0000 O   0  0  0  0  0  0  0  0  0  0  0  0
    4.5392   -4.3445    0.0000 O   0  0  0  0  0  0  0  0  0  0  0  0
    3.3837   -6.3173    0.0000 O   0  0  0  0  0  0  0  0  0  0  0  0
    5.6823   -4.3516    0.0000 O   0  0  0  0  0  0  0  0  0  0  0  0
    7.4184   -4.0168    0.0000 C   0  0  2  0  0  0  0  0  0  0  0  0
    7.4234   -3.3568    0.0000 C   0  0  2  0  0  0  0  0  0  0  0  0
    6.8544   -3.0225    0.0000 C   0  0  1  0  0  0  0  0  0  0  0  0
    6.2803   -3.3481    0.0000 C   0  0  2  0  0  0  0  0  0  0  0  0
    6.2753   -4.0081    0.0000 C   0  0  1  0  0  0  0  0  0  0  0  0
    6.8443   -4.3425    0.0000 O   0  0  0  0  0  0  0  0  0  0  0  0
    7.9874   -4.3512    0.0000 C   0  0  0  0  0  0  0  0  0  0  0  0
    6.8594   -2.3625    0.0000 O   0  0  0  0  0  0  0  0  0  0  0  0
    7.9975   -3.0312    0.0000 O   0  0  0  0  0  0  0  0  0  0  0  0
    5.7112   -3.0138    0.0000 O   0  0  0  0  0  0  0  0  0  0  0  0
    8.5615   -4.0255    0.0000 O   0  0  0  0  0  0  0  0  0  0  0  0
  1  2  1  0  0  0  0
  2  3  2  0  0  0  0
  3  4  1  0  0  0  0
  4  5  2  0  0  0  0
  5  6  1  0  0  0  0
  6  7  1  0  0  0  0
  7  8  1  0  0  0  0
  8  9  2  0  0  0  0
  9 10  1  0  0  0  0
 10 11  2  0  0  0  0
 11 12  1  0  0  0  0
  7 12  2  0  0  0  0
 12 13  1  0  0  0  0
 13 14  1  0  0  0  0
  5 14  1  0  0  0  0
  1 14  2  0  0  0  0
 13 15  2  0  0  0  0
  6 16  2  0  0  0  0
  3 17  1  0  0  0  0
 11 18  1  0  0  0  0
  1 19  1  0  0  0  0
 20 21  1  0  0  0  0
 21 22  1  0  0  0  0
 22 23  1  0  0  0  0
 23 24  1  0  0  0  0
 24 25  1  0  0  0  0
 25 20  1  0  0  0  0
 20 26  1  1  0  0  0
 22 27  1  1  0  0  0
 21 28  1  6  0  0  0
 23 29  1  6  0  0  0
 26 30  1  0  0  0  0
 31 32  1  0  0  0  0
 32 33  1  0  0  0  0
 33 34  1  0  0  0  0
 34 35  1  0  0  0  0
 35 36  1  0  0  0  0
 36 31  1  0  0  0  0
 31 37  1  1  0  0  0
 33 38  1  1  0  0  0
 32 39  1  6  0  0  0
 34 40  1  6  0  0  0
 37 41  1  0  0  0  0
 35 30  1  1  0  0  0
 42 43  1  0  0  0  0
 43 44  1  0  0  0  0
 44 45  1  0  0  0  0
 45 46  1  0  0  0  0
 46 47  1  0  0  0  0
 47 42  1  0  0  0  0
 42 48  1  1  0  0  0
 44 49  1  1  0  0  0
 43 50  1  6  0  0  0
 45 51  1  6  0  0  0
 48 52  1  0  0  0  0
 53 54  1  0  0  0  0
 54 55  1  0  0  0  0
 55 56  1  0  0  0  0
 56 57  1  0  0  0  0
 57 58  1  0  0  0  0
 58 53  1  0  0  0  0
 53 59  1  1  0  0  0
 55 60  1  1  0  0  0
 54 61  1  6  0  0  0
 56 62  1  6  0  0  0
 59 63  1  0  0  0  0
 57 52  1  1  0  0  0
 46 38  1  1  0  0  0
 24 18  1  1  0  0  0
M  END
>  <cdx:fragmentId>
149

$$$$
