98308.cdx
  Mrv1902 05222410192D          

 51 55  0  0  0  0            999 V2000
   10.9220  -13.2205    0.0000 C   0  0  0  0  0  0  0  0  0  0  0  0
   11.6365  -13.6330    0.0000 C   0  0  0  0  0  0  0  0  0  0  0  0
    9.4931  -13.2205    0.0000 C   0  0  0  0  0  0  0  0  0  0  0  0
   10.2075  -13.6330    0.0000 C   0  0  0  0  0  0  0  0  0  0  0  0
   10.2075  -14.4580    0.0000 C   0  0  0  0  0  0  0  0  0  0  0  0
    9.4931  -14.8705    0.0000 C   0  0  0  0  0  0  0  0  0  0  0  0
    8.7786  -14.4580    0.0000 C   0  0  0  0  0  0  0  0  0  0  0  0
    8.0641  -14.8705    0.0000 C   0  0  0  0  0  0  0  0  0  0  0  0
    7.3497  -14.4580    0.0000 C   0  0  0  0  0  0  0  0  0  0  0  0
    7.3497  -13.6330    0.0000 C   0  0  0  0  0  0  0  0  0  0  0  0
    8.0641  -13.2205    0.0000 C   0  0  0  0  0  0  0  0  0  0  0  0
    8.7786  -13.6330    0.0000 C   0  0  0  0  0  0  0  0  0  0  0  0
   10.9220  -14.8705    0.0000 C   0  0  0  0  0  0  0  0  0  0  0  0
    6.6352  -14.8705    0.0000 O   0  0  0  0  0  0  0  0  0  0  0  0
    5.9207  -14.4580    0.0000 C   0  0  0  0  0  0  0  0  0  0  0  0
    8.0641  -12.3955    0.0000 O   0  0  0  0  0  0  0  0  0  0  0  0
    9.4931  -12.3955    0.0000 O   0  0  0  0  0  0  0  0  0  0  0  0
   10.9220  -12.3955    0.0000 O   0  0  0  0  0  0  0  0  0  0  0  0
    6.6613  -10.7496    0.0000 C   0  0  2  0  0  0  0  0  0  0  0  0
    5.9454  -11.1596    0.0000 C   0  0  2  0  0  0  0  0  0  0  0  0
    5.9425  -11.9846    0.0000 C   0  0  1  0  0  0  0  0  0  0  0  0
    6.6555  -12.3996    0.0000 C   0  0  2  0  0  0  0  0  0  0  0  0
    7.3714  -11.9896    0.0000 C   0  0  1  0  0  0  0  0  0  0  0  0
    7.3743  -11.1646    0.0000 O   0  0  0  0  0  0  0  0  0  0  0  0
    6.6642   -9.9246    0.0000 C   0  0  0  0  0  0  0  0  0  0  0  0
    5.2266  -12.3946    0.0000 O   0  0  0  0  0  0  0  0  0  0  0  0
    5.2324  -10.7446    0.0000 O   0  0  0  0  0  0  0  0  0  0  0  0
    6.6526  -13.2246    0.0000 O   0  0  0  0  0  0  0  0  0  0  0  0
    5.9512   -9.5096    0.0000 O   0  0  0  0  0  0  0  0  0  0  0  0
    6.6816   -7.4349    0.0000 C   0  0  2  0  0  0  0  0  0  0  0  0
    5.9697   -7.0180    0.0000 C   0  0  2  0  0  0  0  0  0  0  0  0
    5.2527   -7.4260    0.0000 C   0  0  1  0  0  0  0  0  0  0  0  0
    5.2475   -8.2510    0.0000 C   0  0  2  0  0  0  0  0  0  0  0  0
    5.9594   -8.6679    0.0000 C   0  0  1  0  0  0  0  0  0  0  0  0
    6.6765   -8.2599    0.0000 O   0  0  0  0  0  0  0  0  0  0  0  0
    7.3986   -7.0269    0.0000 C   0  0  0  0  0  0  0  0  0  0  0  0
    4.5408   -7.0090    0.0000 O   0  0  0  0  0  0  0  0  0  0  0  0
    5.9749   -6.1930    0.0000 O   0  0  0  0  0  0  0  0  0  0  0  0
    4.5305   -8.6590    0.0000 O   0  0  0  0  0  0  0  0  0  0  0  0
    7.4038   -6.2019    0.0000 O   0  0  0  0  0  0  0  0  0  0  0  0
    5.2557   -4.9365    0.0000 C   0  0  2  0  0  0  0  0  0  0  0  0
    4.5438   -4.5195    0.0000 C   0  0  2  0  0  0  0  0  0  0  0  0
    3.8268   -4.9275    0.0000 C   0  0  1  0  0  0  0  0  0  0  0  0
    3.8217   -5.7525    0.0000 C   0  0  2  0  0  0  0  0  0  0  0  0
    4.5335   -6.1695    0.0000 C   0  0  1  0  0  0  0  0  0  0  0  0
    5.2506   -5.7615    0.0000 O   0  0  0  0  0  0  0  0  0  0  0  0
    5.9728   -4.5284    0.0000 C   0  0  0  0  0  0  0  0  0  0  0  0
    3.1149   -4.5106    0.0000 O   0  0  0  0  0  0  0  0  0  0  0  0
    4.5490   -3.6945    0.0000 O   0  0  0  0  0  0  0  0  0  0  0  0
    3.1046   -6.1606    0.0000 O   0  0  0  0  0  0  0  0  0  0  0  0
    5.9779   -3.7035    0.0000 O   0  0  0  0  0  0  0  0  0  0  0  0
  1  2  1  0  0  0  0
  3  4  1  0  0  0  0
  4  5  2  0  0  0  0
  5  6  1  0  0  0  0
  6  7  2  0  0  0  0
  7  8  1  0  0  0  0
  8  9  2  0  0  0  0
  9 10  1  0  0  0  0
 10 11  2  0  0  0  0
 11 12  1  0  0  0  0
  3 12  2  0  0  0  0
  7 12  1  0  0  0  0
  5 13  1  0  0  0  0
 14 15  1  0  0  0  0
  9 14  1  0  0  0  0
 11 16  1  0  0  0  0
  3 17  1  0  0  0  0
  1  4  1  0  0  0  0
  1 18  2  0  0  0  0
 19 20  1  0  0  0  0
 20 21  1  0  0  0  0
 21 22  1  0  0  0  0
 22 23  1  0  0  0  0
 23 24  1  0  0  0  0
 24 19  1  0  0  0  0
 19 25  1  1  0  0  0
 21 26  1  1  0  0  0
 20 27  1  6  0  0  0
 22 28  1  6  0  0  0
 25 29  1  0  0  0  0
 30 31  1  0  0  0  0
 31 32  1  0  0  0  0
 32 33  1  0  0  0  0
 33 34  1  0  0  0  0
 34 35  1  0  0  0  0
 35 30  1  0  0  0  0
 30 36  1  1  0  0  0
 32 37  1  1  0  0  0
 31 38  1  6  0  0  0
 33 39  1  6  0  0  0
 36 40  1  0  0  0  0
 34 29  1  1  0  0  0
 41 42  1  0  0  0  0
 42 43  1  0  0  0  0
 43 44  1  0  0  0  0
 44 45  1  0  0  0  0
 45 46  1  0  0  0  0
 46 41  1  0  0  0  0
 41 47  1  1  0  0  0
 43 48  1  1  0  0  0
 42 49  1  6  0  0  0
 44 50  1  6  0  0  0
 47 51  1  0  0  0  0
 45 37  1  1  0  0  0
 23 16  1  1  0  0  0
M  END
>  <cdx:fragmentId>
149

$$$$
