98300.cdx
  Mrv1902 05222410272D          

 41 45  0  0  0  0            999 V2000
    6.3183   -7.9835    0.0000 C   0  0  0  0  0  0  0  0  0  0  0  0
    7.0328   -8.3960    0.0000 C   0  0  0  0  0  0  0  0  0  0  0  0
    7.0328   -9.2210    0.0000 C   0  0  0  0  0  0  0  0  0  0  0  0
    6.3183   -9.6335    0.0000 C   0  0  0  0  0  0  0  0  0  0  0  0
    5.6038   -9.2210    0.0000 C   0  0  0  0  0  0  0  0  0  0  0  0
    4.8894   -9.6335    0.0000 C   0  0  0  0  0  0  0  0  0  0  0  0
    4.1749   -9.2210    0.0000 C   0  0  0  0  0  0  0  0  0  0  0  0
    3.4604   -9.6335    0.0000 C   0  0  0  0  0  0  0  0  0  0  0  0
    2.7459   -9.2210    0.0000 C   0  0  0  0  0  0  0  0  0  0  0  0
    2.7459   -8.3960    0.0000 C   0  0  0  0  0  0  0  0  0  0  0  0
    3.4604   -7.9835    0.0000 C   0  0  0  0  0  0  0  0  0  0  0  0
    4.1749   -8.3960    0.0000 C   0  0  0  0  0  0  0  0  0  0  0  0
    4.8894   -7.9835    0.0000 C   0  0  0  0  0  0  0  0  0  0  0  0
    5.6038   -8.3960    0.0000 C   0  0  0  0  0  0  0  0  0  0  0  0
    4.8894   -7.1585    0.0000 O   0  0  0  0  0  0  0  0  0  0  0  0
    4.8894  -10.4585    0.0000 O   0  0  0  0  0  0  0  0  0  0  0  0
    7.7472   -9.6335    0.0000 C   0  0  0  0  0  0  0  0  0  0  0  0
    3.4604   -7.1585    0.0000 O   0  0  0  0  0  0  0  0  0  0  0  0
    6.3183   -7.1585    0.0000 O   0  0  0  0  0  0  0  0  0  0  0  0
    8.4497   -6.7451    0.0000 C   0  0  2  0  0  0  0  0  0  0  0  0
    8.4496   -5.9201    0.0000 C   0  0  2  0  0  0  0  0  0  0  0  0
    7.7350   -5.5077    0.0000 C   0  0  1  0  0  0  0  0  0  0  0  0
    7.0206   -5.9204    0.0000 C   0  0  2  0  0  0  0  0  0  0  0  0
    7.0208   -6.7454    0.0000 C   0  0  1  0  0  0  0  0  0  0  0  0
    7.7353   -7.1577    0.0000 O   0  0  0  0  0  0  0  0  0  0  0  0
    9.1643   -7.1575    0.0000 C   0  0  0  0  0  0  0  0  0  0  0  0
    7.7349   -4.6827    0.0000 O   0  0  0  0  0  0  0  0  0  0  0  0
    9.1640   -5.5075    0.0000 O   0  0  0  0  0  0  0  0  0  0  0  0
    6.3061   -5.5080    0.0000 O   0  0  0  0  0  0  0  0  0  0  0  0
    9.8787   -6.7448    0.0000 O   0  0  0  0  0  0  0  0  0  0  0  0
   11.3163   -8.4095    0.0000 C   0  0  2  0  0  0  0  0  0  0  0  0
   12.0319   -7.9988    0.0000 C   0  0  2  0  0  0  0  0  0  0  0  0
   12.0340   -7.1738    0.0000 C   0  0  1  0  0  0  0  0  0  0  0  0
   11.3206   -6.7595    0.0000 C   0  0  2  0  0  0  0  0  0  0  0  0
   10.6051   -7.1702    0.0000 C   0  0  1  0  0  0  0  0  0  0  0  0
   10.6029   -7.9952    0.0000 O   0  0  0  0  0  0  0  0  0  0  0  0
   11.3142   -9.2345    0.0000 C   0  0  0  0  0  0  0  0  0  0  0  0
   12.7495   -6.7632    0.0000 O   0  0  0  0  0  0  0  0  0  0  0  0
   12.7453   -8.4132    0.0000 O   0  0  0  0  0  0  0  0  0  0  0  0
   11.3227   -5.9345    0.0000 O   0  0  0  0  0  0  0  0  0  0  0  0
   12.0276   -9.6488    0.0000 O   0  0  0  0  0  0  0  0  0  0  0  0
  1  2  1  0  0  0  0
  2  3  2  0  0  0  0
  3  4  1  0  0  0  0
  4  5  2  0  0  0  0
  5  6  1  0  0  0  0
  6  7  1  0  0  0  0
  7  8  1  0  0  0  0
  8  9  2  0  0  0  0
  9 10  1  0  0  0  0
 10 11  2  0  0  0  0
 11 12  1  0  0  0  0
  7 12  2  0  0  0  0
 12 13  1  0  0  0  0
 13 14  1  0  0  0  0
  5 14  1  0  0  0  0
  1 14  2  0  0  0  0
 13 15  2  0  0  0  0
  6 16  2  0  0  0  0
  3 17  1  0  0  0  0
 11 18  1  0  0  0  0
  1 19  1  0  0  0  0
 20 21  1  0  0  0  0
 21 22  1  0  0  0  0
 22 23  1  0  0  0  0
 23 24  1  0  0  0  0
 24 25  1  0  0  0  0
 25 20  1  0  0  0  0
 20 26  1  1  0  0  0
 22 27  1  1  0  0  0
 21 28  1  6  0  0  0
 23 29  1  6  0  0  0
 26 30  1  0  0  0  0
 31 32  1  0  0  0  0
 32 33  1  0  0  0  0
 33 34  1  0  0  0  0
 34 35  1  0  0  0  0
 35 36  1  0  0  0  0
 36 31  1  0  0  0  0
 31 37  1  1  0  0  0
 33 38  1  1  0  0  0
 32 39  1  6  0  0  0
 34 40  1  6  0  0  0
 37 41  1  0  0  0  0
 35 30  1  1  0  0  0
 24 19  1  1  0  0  0
M  END
>  <cdx:fragmentId>
65

$$$$
