98306.cdx
  Mrv1902 05222410262D          

 38 41  0  0  0  0            999 V2000
   10.0678  -10.3622    0.0000 C   0  0  0  0  0  0  0  0  0  0  0  0
   10.7823  -10.7747    0.0000 C   0  0  0  0  0  0  0  0  0  0  0  0
    8.6389  -10.3622    0.0000 C   0  0  0  0  0  0  0  0  0  0  0  0
    9.3533  -10.7747    0.0000 C   0  0  0  0  0  0  0  0  0  0  0  0
    9.3533  -11.5997    0.0000 C   0  0  0  0  0  0  0  0  0  0  0  0
    8.6389  -12.0122    0.0000 C   0  0  0  0  0  0  0  0  0  0  0  0
    7.9244  -11.5997    0.0000 C   0  0  0  0  0  0  0  0  0  0  0  0
    7.2099  -12.0122    0.0000 C   0  0  0  0  0  0  0  0  0  0  0  0
    6.4955  -11.5997    0.0000 C   0  0  0  0  0  0  0  0  0  0  0  0
    6.4955  -10.7747    0.0000 C   0  0  0  0  0  0  0  0  0  0  0  0
    7.2099  -10.3622    0.0000 C   0  0  0  0  0  0  0  0  0  0  0  0
    7.9244  -10.7747    0.0000 C   0  0  0  0  0  0  0  0  0  0  0  0
   10.0678  -12.0122    0.0000 C   0  0  0  0  0  0  0  0  0  0  0  0
    5.7810  -12.0122    0.0000 O   0  0  0  0  0  0  0  0  0  0  0  0
    5.0665  -11.5997    0.0000 C   0  0  0  0  0  0  0  0  0  0  0  0
    7.2099   -9.5372    0.0000 O   0  0  0  0  0  0  0  0  0  0  0  0
    8.6389   -9.5372    0.0000 O   0  0  0  0  0  0  0  0  0  0  0  0
   10.0678   -9.5372    0.0000 O   0  0  0  0  0  0  0  0  0  0  0  0
    6.5022   -9.1150    0.0000 C   0  0  1  0  0  0  0  0  0  0  0  0
    5.7854   -9.5234    0.0000 C   0  0  2  0  0  0  0  0  0  0  0  0
    5.7807  -10.3483    0.0000 O   0  0  0  0  0  0  0  0  0  0  0  0
    5.0733   -9.1068    0.0000 C   0  0  1  0  0  0  0  0  0  0  0  0
    4.3565   -9.5152    0.0000 O   0  0  0  0  0  0  0  0  0  0  0  0
    5.0780   -8.2818    0.0000 C   0  0  2  0  0  0  0  0  0  0  0  0
    4.3659   -7.8652    0.0000 O   0  0  0  0  0  0  0  0  0  0  0  0
    5.7949   -7.8734    0.0000 C   0  0  2  0  0  0  0  0  0  0  0  0
    6.5070   -8.2900    0.0000 O   0  0  0  0  0  0  0  0  0  0  0  0
    5.7996   -7.0484    0.0000 C   0  0  0  0  0  0  0  0  0  0  0  0
    5.0875   -6.6318    0.0000 O   0  0  0  0  0  0  0  0  0  0  0  0
    5.0922   -5.8068    0.0000 C   0  0  1  0  0  0  0  0  0  0  0  0
    4.4276   -5.3181    0.0000 C   0  0  2  0  0  0  0  0  0  0  0  0
    3.6415   -5.5685    0.0000 O   0  0  0  0  0  0  0  0  0  0  0  0
    4.6870   -4.5349    0.0000 C   0  0  2  0  0  0  0  0  0  0  0  0
    3.9352   -4.1951    0.0000 O   0  0  0  0  0  0  0  0  0  0  0  0
    5.5120   -4.5397    0.0000 C   0  0  0  0  0  0  0  0  0  0  0  0
    5.7624   -5.3257    0.0000 O   0  0  0  0  0  0  0  0  0  0  0  0
    4.6054   -3.7140    0.0000 C   0  0  0  0  0  0  0  0  0  0  0  0
    3.8537   -3.3741    0.0000 O   0  0  0  0  0  0  0  0  0  0  0  0
  1  2  1  0  0  0  0
  3  4  1  0  0  0  0
  4  5  2  0  0  0  0
  5  6  1  0  0  0  0
  6  7  2  0  0  0  0
  7  8  1  0  0  0  0
  8  9  2  0  0  0  0
  9 10  1  0  0  0  0
 10 11  2  0  0  0  0
 11 12  1  0  0  0  0
  3 12  2  0  0  0  0
  7 12  1  0  0  0  0
  5 13  1  0  0  0  0
 14 15  1  0  0  0  0
  9 14  1  0  0  0  0
 11 16  1  0  0  0  0
  3 17  1  0  0  0  0
  1  4  1  0  0  0  0
  1 18  2  0  0  0  0
 19 20  1  0  0  0  0
 20 21  1  6  0  0  0
 20 22  1  0  0  0  0
 22 23  1  1  0  0  0
 22 24  1  0  0  0  0
 24 25  1  6  0  0  0
 24 26  1  0  0  0  0
 26 27  1  0  0  0  0
 26 28  1  1  0  0  0
 28 29  1  0  0  0  0
 19 27  1  0  0  0  0
 30 31  1  0  0  0  0
 31 32  1  6  0  0  0
 31 33  1  0  0  0  0
 33 34  1  6  0  0  0
 33 35  1  0  0  0  0
 35 36  1  0  0  0  0
 33 37  1  0  0  0  0
 37 38  1  0  0  0  0
 30 36  1  0  0  0  0
 30 29  1  1  0  0  0
 19 16  1  1  0  0  0
M  END
>  <cdx:fragmentId>
59

$$$$
