98304.cdx
  Mrv1902 05222410262D          

 41 45  0  0  0  0            999 V2000
   11.9879   -6.3060    0.0000 C   0  0  0  0  0  0  0  0  0  0  0  0
   11.9879   -7.1310    0.0000 C   0  0  0  0  0  0  0  0  0  0  0  0
   11.2734   -7.5435    0.0000 C   0  0  0  0  0  0  0  0  0  0  0  0
   10.5589   -7.1310    0.0000 C   0  0  0  0  0  0  0  0  0  0  0  0
    9.8444   -7.5435    0.0000 C   0  0  0  0  0  0  0  0  0  0  0  0
    9.1300   -7.1310    0.0000 C   0  0  0  0  0  0  0  0  0  0  0  0
    9.1300   -6.3060    0.0000 C   0  0  0  0  0  0  0  0  0  0  0  0
    9.8444   -5.8935    0.0000 C   0  0  0  0  0  0  0  0  0  0  0  0
   10.5589   -6.3060    0.0000 C   0  0  0  0  0  0  0  0  0  0  0  0
   11.2734   -5.8935    0.0000 O   0  0  0  0  0  0  0  0  0  0  0  0
    8.4155   -5.8935    0.0000 C   0  0  0  0  0  0  0  0  0  0  0  0
    7.7010   -6.3060    0.0000 C   0  0  0  0  0  0  0  0  0  0  0  0
    7.7010   -7.1310    0.0000 C   0  0  0  0  0  0  0  0  0  0  0  0
    8.4155   -7.5435    0.0000 C   0  0  0  0  0  0  0  0  0  0  0  0
    6.9866   -5.8935    0.0000 O   0  0  0  0  0  0  0  0  0  0  0  0
   12.7023   -5.8935    0.0000 C   0  0  0  0  0  0  0  0  0  0  0  0
    8.4155   -8.3685    0.0000 O   0  0  0  0  0  0  0  0  0  0  0  0
    9.8444   -8.3685    0.0000 O   0  0  0  0  0  0  0  0  0  0  0  0
   11.2734   -8.3685    0.0000 O   0  0  0  0  0  0  0  0  0  0  0  0
    7.7010   -8.7810    0.0000 C   0  0  2  0  0  0  0  0  0  0  0  0
    6.9866   -8.3685    0.0000 O   0  0  0  0  0  0  0  0  0  0  0  0
    6.2721   -8.7810    0.0000 C   0  0  1  0  0  0  0  0  0  0  0  0
    6.2721   -9.6060    0.0000 C   0  0  2  0  0  0  0  0  0  0  0  0
    6.9866  -10.0185    0.0000 C   0  0  1  0  0  0  0  0  0  0  0  0
    7.7010   -9.6060    0.0000 C   0  0  1  0  0  0  0  0  0  0  0  0
    5.5576   -8.3685    0.0000 C   0  0  0  0  0  0  0  0  0  0  0  0
    6.9866  -10.8435    0.0000 O   0  0  0  0  0  0  0  0  0  0  0  0
    5.5576  -10.0185    0.0000 O   0  0  0  0  0  0  0  0  0  0  0  0
    8.4155  -10.0185    0.0000 O   0  0  0  0  0  0  0  0  0  0  0  0
    4.8431   -8.7810    0.0000 O   0  0  0  0  0  0  0  0  0  0  0  0
    4.1196   -8.3472    0.0000 C   0  0  2  0  0  0  0  0  0  0  0  0
    4.1220   -7.5222    0.0000 O   0  0  0  0  0  0  0  0  0  0  0  0
    3.4087   -7.1076    0.0000 C   0  0  1  0  0  0  0  0  0  0  0  0
    2.6931   -7.5181    0.0000 C   0  0  2  0  0  0  0  0  0  0  0  0
    2.6907   -8.3431    0.0000 C   0  0  1  0  0  0  0  0  0  0  0  0
    3.4040   -8.7576    0.0000 C   0  0  1  0  0  0  0  0  0  0  0  0
    3.4111   -6.2826    0.0000 C   0  0  0  0  0  0  0  0  0  0  0  0
    1.9750   -8.7535    0.0000 O   0  0  0  0  0  0  0  0  0  0  0  0
    1.9798   -7.1035    0.0000 O   0  0  0  0  0  0  0  0  0  0  0  0
    3.4016   -9.5826    0.0000 O   0  0  0  0  0  0  0  0  0  0  0  0
    2.6978   -5.8681    0.0000 O   0  0  0  0  0  0  0  0  0  0  0  0
  1  2  2  0  0  0  0
  2  3  1  0  0  0  0
  3  4  2  0  0  0  0
  4  5  1  0  0  0  0
  5  6  2  0  0  0  0
  6  7  1  0  0  0  0
  7  8  1  0  0  0  0
  8  9  2  0  0  0  0
  4  9  1  0  0  0  0
  9 10  1  0  0  0  0
  1 10  1  0  0  0  0
 11 12  1  0  0  0  0
 12 13  1  0  0  0  0
 13 14  2  0  0  0  0
 14  6  1  0  0  0  0
 11  7  2  0  0  0  0
 12 15  2  0  0  0  0
  1 16  1  0  0  0  0
 14 17  1  0  0  0  0
  5 18  1  0  0  0  0
  3 19  1  0  0  0  0
 20 17  1  1  0  0  0
 20 21  1  0  0  0  0
 21 22  1  0  0  0  0
 22 23  1  0  0  0  0
 23 24  1  0  0  0  0
 24 25  1  0  0  0  0
 25 20  1  0  0  0  0
 22 26  1  1  0  0  0
 24 27  1  1  0  0  0
 23 28  1  6  0  0  0
 25 29  1  6  0  0  0
 26 30  1  0  0  0  0
 31 32  1  0  0  0  0
 32 33  1  0  0  0  0
 33 34  1  0  0  0  0
 34 35  1  0  0  0  0
 35 36  1  0  0  0  0
 36 31  1  0  0  0  0
 33 37  1  1  0  0  0
 35 38  1  1  0  0  0
 34 39  1  6  0  0  0
 36 40  1  6  0  0  0
 37 41  1  0  0  0  0
 31 30  1  1  0  0  0
M  END
>  <cdx:fragmentId>
5

$$$$
