98311.cdx
  Mrv1902 05222410272D          

 23 25  0  0  0  0            999 V2000
    5.1023   -8.8772    0.0000 C   0  0  0  0  0  0  0  0  0  0  0  0
    5.8167   -9.2897    0.0000 C   0  0  0  0  0  0  0  0  0  0  0  0
    6.5312   -8.8772    0.0000 C   0  0  0  0  0  0  0  0  0  0  0  0
    6.5312   -8.0522    0.0000 C   0  0  2  0  0  0  0  0  0  0  0  0
    5.8167   -7.6397    0.0000 C   0  0  0  0  0  0  0  0  0  0  0  0
    5.1023   -8.0522    0.0000 N   0  0  0  0  0  0  0  0  0  0  0  0
    4.3878   -9.2897    0.0000 O   0  0  0  0  0  0  0  0  0  0  0  0
    7.2457   -7.6397    0.0000 C   0  0  0  0  0  0  0  0  0  0  0  0
    7.2457   -6.8147    0.0000 C   0  0  0  0  0  0  0  0  0  0  0  0
    7.9602   -6.4022    0.0000 C   0  0  0  0  0  0  0  0  0  0  0  0
    8.6746   -6.8147    0.0000 C   0  0  0  0  0  0  0  0  0  0  0  0
    8.6746   -7.6397    0.0000 C   0  0  0  0  0  0  0  0  0  0  0  0
    7.9602   -8.0522    0.0000 C   0  0  0  0  0  0  0  0  0  0  0  0
    9.3891   -6.4022    0.0000 O   0  0  0  0  0  0  0  0  0  0  0  0
    7.2457   -9.2897    0.0000 C   0  0  0  0  0  0  0  0  0  0  0  0
    7.9602   -8.8772    0.0000 C   0  0  0  0  0  0  0  0  0  0  0  0
    8.6746   -9.2897    0.0000 C   0  0  0  0  0  0  0  0  0  0  0  0
    8.6746  -10.1147    0.0000 C   0  0  0  0  0  0  0  0  0  0  0  0
    7.9602  -10.5272    0.0000 C   0  0  0  0  0  0  0  0  0  0  0  0
    7.2457  -10.1147    0.0000 C   0  0  0  0  0  0  0  0  0  0  0  0
    9.3891  -10.5272    0.0000 O   0  0  0  0  0  0  0  0  0  0  0  0
    9.3891   -8.8772    0.0000 O   0  0  0  0  0  0  0  0  0  0  0  0
   10.1036   -9.2897    0.0000 C   0  0  0  0  0  0  0  0  0  0  0  0
  1  2  1  0  0  0  0
  2  3  2  0  0  0  0
  3  4  1  0  0  0  0
  4  5  1  0  0  0  0
  5  6  1  0  0  0  0
  1  6  1  0  0  0  0
  1  7  2  0  0  0  0
  8  9  1  0  0  0  0
  9 10  2  0  0  0  0
 10 11  1  0  0  0  0
 11 12  2  0  0  0  0
 12 13  1  0  0  0  0
  8 13  2  0  0  0  0
 11 14  1  0  0  0  0
  4  8  1  6  0  0  0
 15 16  1  0  0  0  0
 16 17  2  0  0  0  0
 17 18  1  0  0  0  0
 18 19  2  0  0  0  0
 19 20  1  0  0  0  0
 15 20  2  0  0  0  0
 18 21  1  0  0  0  0
 22 23  1  0  0  0  0
 17 22  1  0  0  0  0
  3 15  1  0  0  0  0
M  END
>  <cdx:fragmentId>
19

$$$$
