98314.cdx
  Mrv1902 05222410272D          

 43 46  0  0  0  0            999 V2000
    7.6311   -8.7743    0.0000 C   0  0  2  0  0  0  0  0  0  0  0  0
    6.9226   -8.3516    0.0000 O   0  0  0  0  0  0  0  0  0  0  0  0
    6.2023   -8.7538    0.0000 C   0  0  1  0  0  0  0  0  0  0  0  0
    6.1905   -9.5787    0.0000 C   0  0  2  0  0  0  0  0  0  0  0  0
    6.8990  -10.0014    0.0000 C   0  0  1  0  0  0  0  0  0  0  0  0
    7.6193   -9.5992    0.0000 C   0  0  1  0  0  0  0  0  0  0  0  0
    5.4938   -8.3312    0.0000 C   0  0  0  0  0  0  0  0  0  0  0  0
    6.8872  -10.8263    0.0000 O   0  0  0  0  0  0  0  0  0  0  0  0
    5.4702   -9.9810    0.0000 O   0  0  0  0  0  0  0  0  0  0  0  0
   12.6378   -8.4333    0.0000 O   0  0  0  0  0  0  0  0  0  0  0  0
   12.6142  -10.0831    0.0000 O   0  0  0  0  0  0  0  0  0  0  0  0
   10.4769   -9.6400    0.0000 C   0  0  0  0  0  0  0  0  0  0  0  0
   11.1854  -10.0627    0.0000 C   0  0  0  0  0  0  0  0  0  0  0  0
   11.9057   -9.6605    0.0000 C   0  0  0  0  0  0  0  0  0  0  0  0
   11.9175   -8.8355    0.0000 C   0  0  0  0  0  0  0  0  0  0  0  0
   11.2090   -8.4129    0.0000 C   0  0  0  0  0  0  0  0  0  0  0  0
   10.4887   -8.8151    0.0000 C   0  0  0  0  0  0  0  0  0  0  0  0
    9.7802   -8.3924    0.0000 C   0  0  0  0  0  0  0  0  0  0  0  0
    9.0599   -8.7947    0.0000 C   0  0  0  0  0  0  0  0  0  0  0  0
    8.3514   -8.3720    0.0000 O   0  0  0  0  0  0  0  0  0  0  0  0
    6.3103  -14.6167    0.0000 O   0  0  0  0  0  0  0  0  0  0  0  0
    4.8592  -13.8314    0.0000 O   0  0  0  0  0  0  0  0  0  0  0  0
    6.2421  -12.1427    0.0000 C   0  0  0  0  0  0  0  0  0  0  0  0
    5.5393  -12.5747    0.0000 C   0  0  0  0  0  0  0  0  0  0  0  0
    5.5620  -13.3994    0.0000 C   0  0  0  0  0  0  0  0  0  0  0  0
    6.2876  -13.7920    0.0000 C   0  0  0  0  0  0  0  0  0  0  0  0
    6.9904  -13.3600    0.0000 C   0  0  0  0  0  0  0  0  0  0  0  0
    6.9677  -12.5353    0.0000 C   0  0  0  0  0  0  0  0  0  0  0  0
    7.6705  -12.1033    0.0000 C   0  0  0  0  0  0  0  0  0  0  0  0
    9.0762  -11.2392    0.0000 O   0  0  0  0  0  0  0  0  0  0  0  0
    7.6478  -11.2786    0.0000 C   0  0  0  0  0  0  0  0  0  0  0  0
    8.3506  -10.8465    0.0000 C   0  0  0  0  0  0  0  0  0  0  0  0
    8.3278  -10.0218    0.0000 O   0  0  0  0  0  0  0  0  0  0  0  0
    2.6506   -5.8513    0.0000 O   0  0  0  0  0  0  0  0  0  0  0  0
    4.0753   -8.3288    0.0000 O   0  0  0  0  0  0  0  0  0  0  0  0
    2.6477   -7.5013    0.0000 O   0  0  0  0  0  0  0  0  0  0  0  0
    4.7933   -6.2675    0.0000 O   0  0  0  0  0  0  0  0  0  0  0  0
    4.0795   -5.8538    0.0000 C   0  0  0  0  0  0  0  0  0  0  0  0
    3.3643   -6.2651    0.0000 C   0  0  2  0  0  0  0  0  0  0  0  0
    3.3629   -7.0901    0.0000 C   0  0  1  0  0  0  0  0  0  0  0  0
    4.0767   -7.5038    0.0000 C   0  0  2  0  0  0  0  0  0  0  0  0
    4.7919   -7.0925    0.0000 C   0  0  2  0  0  0  0  0  0  0  0  0
    5.5056   -7.5062    0.0000 O   0  0  0  0  0  0  0  0  0  0  0  0
  1  2  1  0  0  0  0
  2  3  1  0  0  0  0
  3  4  1  0  0  0  0
  4  5  1  0  0  0  0
  5  6  1  0  0  0  0
  6  1  1  0  0  0  0
 15 10  1  0  0  0  0
  1 20  1  1  0  0  0
  3  7  1  1  0  0  0
  5  8  1  1  0  0  0
 26 21  1  0  0  0  0
  6 33  1  6  0  0  0
  4  9  1  6  0  0  0
 14 11  1  0  0  0  0
 12 17  1  0  0  0  0
 13 12  2  0  0  0  0
 14 13  1  0  0  0  0
 15 14  2  0  0  0  0
 16 15  1  0  0  0  0
 17 16  2  0  0  0  0
 18 17  1  0  0  0  0
 19 18  1  0  0  0  0
 20 19  1  0  0  0  0
 25 22  1  0  0  0  0
 23 28  1  0  0  0  0
 24 23  2  0  0  0  0
 25 24  1  0  0  0  0
 26 25  2  0  0  0  0
 27 26  1  0  0  0  0
 28 27  2  0  0  0  0
 29 28  1  0  0  0  0
 31 29  2  0  0  0  0
 32 30  2  0  0  0  0
 32 31  1  0  0  0  0
 33 32  1  0  0  0  0
 39 34  1  6  0  0  0
  7 43  1  0  0  0  0
 41 35  1  6  0  0  0
 40 36  1  1  0  0  0
 37 42  1  0  0  0  0
 38 37  1  0  0  0  0
 39 38  1  0  0  0  0
 40 39  1  0  0  0  0
 41 40  1  0  0  0  0
 42 41  1  0  0  0  0
 42 43  1  1  0  0  0
M  END
>  <cdx:fragmentId>
5

$$$$
