98317.cdx
  Mrv1902 05222410282D          

 38 41  0  0  0  0            999 V2000
    8.0855   -8.3600    0.0000 C   0  0  0  0  0  0  0  0  0  0  0  0
    8.0855   -9.1850    0.0000 C   0  0  0  0  0  0  0  0  0  0  0  0
    8.8000   -9.5975    0.0000 C   0  0  0  0  0  0  0  0  0  0  0  0
    9.5145   -9.1850    0.0000 C   0  0  0  0  0  0  0  0  0  0  0  0
    9.5145   -8.3600    0.0000 C   0  0  0  0  0  0  0  0  0  0  0  0
    8.8000   -7.9475    0.0000 C   0  0  0  0  0  0  0  0  0  0  0  0
    7.3009   -8.1051    0.0000 C   0  0  1  0  0  0  0  0  0  0  0  0
    6.8160   -8.7725    0.0000 C   0  0  2  0  0  0  0  0  0  0  0  0
    7.3009   -9.4399    0.0000 O   0  0  0  0  0  0  0  0  0  0  0  0
    8.8000  -10.4225    0.0000 O   0  0  0  0  0  0  0  0  0  0  0  0
    9.5145  -10.8350    0.0000 C   0  0  0  0  0  0  0  0  0  0  0  0
    5.9910   -8.7725    0.0000 C   0  0  0  0  0  0  0  0  0  0  0  0
    5.5785   -8.0580    0.0000 C   0  0  0  0  0  0  0  0  0  0  0  0
    4.7535   -8.0580    0.0000 C   0  0  0  0  0  0  0  0  0  0  0  0
    4.3410   -8.7725    0.0000 C   0  0  0  0  0  0  0  0  0  0  0  0
    4.7535   -9.4870    0.0000 C   0  0  0  0  0  0  0  0  0  0  0  0
    5.5785   -9.4870    0.0000 C   0  0  0  0  0  0  0  0  0  0  0  0
    3.5160   -8.7725    0.0000 O   0  0  0  0  0  0  0  0  0  0  0  0
    4.3410  -10.2014    0.0000 O   0  0  0  0  0  0  0  0  0  0  0  0
    4.7535  -10.9159    0.0000 C   0  0  0  0  0  0  0  0  0  0  0  0
    7.0460   -7.3204    0.0000 C   0  0  0  0  0  0  0  0  0  0  0  0
    7.5980   -6.7073    0.0000 O   0  0  0  0  0  0  0  0  0  0  0  0
    7.3431   -5.9227    0.0000 C   0  0  2  0  0  0  0  0  0  0  0  0
    7.8951   -5.3096    0.0000 O   0  0  0  0  0  0  0  0  0  0  0  0
    7.6402   -4.5250    0.0000 C   0  0  1  0  0  0  0  0  0  0  0  0
    6.8332   -4.3535    0.0000 C   0  0  2  0  0  0  0  0  0  0  0  0
    6.2812   -4.9666    0.0000 C   0  0  1  0  0  0  0  0  0  0  0  0
    6.5361   -5.7512    0.0000 C   0  0  1  0  0  0  0  0  0  0  0  0
    8.1922   -3.9119    0.0000 C   0  0  0  0  0  0  0  0  0  0  0  0
    5.4742   -4.7950    0.0000 O   0  0  0  0  0  0  0  0  0  0  0  0
    6.5782   -3.5689    0.0000 O   0  0  0  0  0  0  0  0  0  0  0  0
    5.9841   -6.3643    0.0000 O   0  0  0  0  0  0  0  0  0  0  0  0
    7.9372   -3.1273    0.0000 O   0  0  0  0  0  0  0  0  0  0  0  0
   10.2289   -7.9475    0.0000 C   0  0  0  0  0  0  0  0  0  0  0  0
   10.9434   -8.3600    0.0000 C   0  0  0  0  0  0  0  0  0  0  0  0
   11.6579   -7.9475    0.0000 C   0  0  0  0  0  0  0  0  0  0  0  0
   12.3724   -8.3600    0.0000 O   0  0  0  0  0  0  0  0  0  0  0  0
   13.0868   -7.9475    0.0000 C   0  0  0  0  0  0  0  0  0  0  0  0
  1  2  2  0  0  0  0
  2  3  1  0  0  0  0
  3  4  2  0  0  0  0
  4  5  1  0  0  0  0
  5  6  2  0  0  0  0
  6  1  1  0  0  0  0
  1  7  1  0  0  0  0
  7  8  1  0  0  0  0
  8  9  1  0  0  0  0
  9  2  1  0  0  0  0
  3 10  1  0  0  0  0
 10 11  1  0  0  0  0
  8 12  1  6  0  0  0
 12 13  2  0  0  0  0
 13 14  1  0  0  0  0
 14 15  2  0  0  0  0
 15 16  1  0  0  0  0
 16 17  2  0  0  0  0
 17 12  1  0  0  0  0
 15 18  1  0  0  0  0
 16 19  1  0  0  0  0
 19 20  1  0  0  0  0
  7 21  1  1  0  0  0
 21 22  1  0  0  0  0
 23 22  1  1  0  0  0
 23 24  1  0  0  0  0
 24 25  1  0  0  0  0
 25 26  1  0  0  0  0
 26 27  1  0  0  0  0
 27 28  1  0  0  0  0
 28 23  1  0  0  0  0
 25 29  1  1  0  0  0
 27 30  1  1  0  0  0
 26 31  1  6  0  0  0
 28 32  1  6  0  0  0
 29 33  1  0  0  0  0
  5 34  1  0  0  0  0
 34 35  2  0  0  0  0
 35 36  1  0  0  0  0
 36 37  1  0  0  0  0
 37 38  1  0  0  0  0
M  END
>  <cdx:fragmentId>
190

$$$$
