98310.cdx
  Mrv1902 05222410262D          

 40 39  0  0  0  0            999 V2000
    1.3154   -3.6221    0.0000 C   0  0  0  0  0  0  0  0  0  0  0  0
    1.8874   -3.2929    0.0000 C   0  0  0  0  0  0  0  0  0  0  0  0
    2.4585   -3.6236    0.0000 C   0  0  0  0  0  0  0  0  0  0  0  0
    2.4577   -4.2836    0.0000 C   0  0  0  0  0  0  0  0  0  0  0  0
    3.0288   -4.6144    0.0000 C   0  0  0  0  0  0  0  0  0  0  0  0
    3.0279   -5.2744    0.0000 C   0  0  0  0  0  0  0  0  0  0  0  0
    3.5991   -5.6051    0.0000 C   0  0  0  0  0  0  0  0  0  0  0  0
    3.5982   -6.2651    0.0000 C   0  0  0  0  0  0  0  0  0  0  0  0
    4.1694   -6.5959    0.0000 C   0  0  0  0  0  0  0  0  0  0  0  0
    4.1685   -7.2559    0.0000 C   0  0  0  0  0  0  0  0  0  0  0  0
    4.7396   -7.5866    0.0000 C   0  0  0  0  0  0  0  0  0  0  0  0
    4.7388   -8.2466    0.0000 C   0  0  0  0  0  0  0  0  0  0  0  0
    5.3099   -8.5774    0.0000 C   0  0  0  0  0  0  0  0  0  0  0  0
    5.3091   -9.2374    0.0000 C   0  0  0  0  0  0  0  0  0  0  0  0
    5.8802   -9.5681    0.0000 C   0  0  0  0  0  0  0  0  0  0  0  0
    5.8793  -10.2281    0.0000 C   0  0  0  0  0  0  0  0  0  0  0  0
    6.4505  -10.5589    0.0000 C   0  0  0  0  0  0  0  0  0  0  0  0
    6.4496  -11.2189    0.0000 C   0  0  0  0  0  0  0  0  0  0  0  0
    7.0208  -11.5496    0.0000 C   0  0  0  0  0  0  0  0  0  0  0  0
    7.0199  -12.2096    0.0000 C   0  0  0  0  0  0  0  0  0  0  0  0
    7.5911  -12.5404    0.0000 C   0  0  0  0  0  0  0  0  0  0  0  0
    7.5902  -13.2004    0.0000 C   0  0  0  0  0  0  0  0  0  0  0  0
    8.1613  -13.5311    0.0000 C   0  0  0  0  0  0  0  0  0  0  0  0
    8.7333  -13.2019    0.0000 C   0  0  0  0  0  0  0  0  0  0  0  0
    9.3045  -13.5326    0.0000 C   0  0  0  0  0  0  0  0  0  0  0  0
    9.8765  -13.2034    0.0000 C   0  0  0  0  0  0  0  0  0  0  0  0
   10.4476  -13.5341    0.0000 C   0  0  0  0  0  0  0  0  0  0  0  0
   11.0196  -13.2049    0.0000 C   0  0  0  0  0  0  0  0  0  0  0  0
   11.5908  -13.5356    0.0000 C   0  0  0  0  0  0  0  0  0  0  0  0
   12.1628  -13.2064    0.0000 C   0  0  0  0  0  0  0  0  0  0  0  0
   12.7339  -13.5371    0.0000 C   0  0  0  0  0  0  0  0  0  0  0  0
   13.3060  -13.2078    0.0000 C   0  0  0  0  0  0  0  0  0  0  0  0
   12.7331  -14.1971    0.0000 C   0  0  0  0  0  0  0  0  0  0  0  0
   10.4468  -14.1941    0.0000 C   0  0  0  0  0  0  0  0  0  0  0  0
    8.1605  -14.1911    0.0000 C   0  0  0  0  0  0  0  0  0  0  0  0
    7.5928  -11.2204    0.0000 C   0  0  0  0  0  0  0  0  0  0  0  0
    4.7371   -9.5666    0.0000 C   0  0  0  0  0  0  0  0  0  0  0  0
    3.5965   -7.5851    0.0000 C   0  0  0  0  0  0  0  0  0  0  0  0
    2.4559   -5.6036    0.0000 C   0  0  0  0  0  0  0  0  0  0  0  0
    1.8882   -2.6329    0.0000 C   0  0  0  0  0  0  0  0  0  0  0  0
  1  2  1  0  0  0  0
  2  3  2  0  0  0  0
  3  4  1  0  0  0  0
  4  5  1  0  0  0  0
  5  6  1  0  0  0  0
  6  7  2  0  0  0  0
  7  8  1  0  0  0  0
  8  9  2  0  0  0  0
  9 10  1  0  0  0  0
 10 11  2  0  0  0  0
 11 12  1  0  0  0  0
 12 13  2  0  0  0  0
 13 14  1  0  0  0  0
 14 15  2  0  0  0  0
 15 16  1  0  0  0  0
 16 17  2  0  0  0  0
 17 18  1  0  0  0  0
 18 19  2  0  0  0  0
 19 20  1  0  0  0  0
 20 21  2  0  0  0  0
 21 22  1  0  0  0  0
 22 23  2  0  0  0  0
 23 24  1  0  0  0  0
 24 25  2  0  0  0  0
 25 26  1  0  0  0  0
 26 27  2  0  0  0  0
 27 28  1  0  0  0  0
 28 29  1  0  0  0  0
 29 30  1  0  0  0  0
 30 31  2  0  0  0  0
 31 32  1  0  0  0  0
 31 33  1  0  0  0  0
 27 34  1  0  0  0  0
 23 35  1  0  0  0  0
 19 36  1  0  0  0  0
 14 37  1  0  0  0  0
 10 38  1  0  0  0  0
  6 39  1  0  0  0  0
  2 40  1  0  0  0  0
M  END
>  <cdx:fragmentId>
5

$$$$
