98312.cdx
  Mrv1902 05222410262D          

 20 23  0  0  0  0            999 V2000
    5.2805   -8.1813    0.0000 C   0  0  0  0  0  0  0  0  0  0  0  0
    5.2749   -9.0063    0.0000 C   0  0  0  0  0  0  0  0  0  0  0  0
    5.9865   -9.4236    0.0000 C   0  0  0  0  0  0  0  0  0  0  0  0
    6.7038   -9.0160    0.0000 C   0  0  0  0  0  0  0  0  0  0  0  0
    6.7094   -8.1911    0.0000 C   0  0  0  0  0  0  0  0  0  0  0  0
    5.9978   -7.7737    0.0000 C   0  0  0  0  0  0  0  0  0  0  0  0
    7.4267   -7.7835    0.0000 C   0  0  0  0  0  0  0  0  0  0  0  0
    7.4324   -6.9585    0.0000 C   0  0  0  0  0  0  0  0  0  0  0  0
    6.7207   -6.5411    0.0000 C   0  0  0  0  0  0  0  0  0  0  0  0
    6.0034   -6.9487    0.0000 C   0  0  0  0  0  0  0  0  0  0  0  0
    7.4154   -9.4334    0.0000 C   0  0  0  0  0  0  0  0  0  0  0  0
    8.1327   -9.0258    0.0000 O   0  0  0  0  0  0  0  0  0  0  0  0
    8.1384   -8.2008    0.0000 C   0  0  0  0  0  0  0  0  0  0  0  0
    8.8556   -7.7932    0.0000 C   0  0  0  0  0  0  0  0  0  0  0  0
    8.8613   -6.9682    0.0000 C   0  0  0  0  0  0  0  0  0  0  0  0
    8.1496   -6.5509    0.0000 C   0  0  0  0  0  0  0  0  0  0  0  0
    5.9809  -10.2486    0.0000 O   0  0  0  0  0  0  0  0  0  0  0  0
    4.5576   -9.4139    0.0000 O   0  0  0  0  0  0  0  0  0  0  0  0
    3.8460   -8.9965    0.0000 C   0  0  0  0  0  0  0  0  0  0  0  0
    9.5785   -6.5606    0.0000 O   0  0  0  0  0  0  0  0  0  0  0  0
  1  2  2  0  0  0  0
  2  3  1  0  0  0  0
  3  4  2  0  0  0  0
  4  5  1  0  0  0  0
  5  6  2  0  0  0  0
  6  1  1  0  0  0  0
  5  7  1  0  0  0  0
  7  8  2  0  0  0  0
  8  9  1  0  0  0  0
  9 10  1  0  0  0  0
 10  6  1  0  0  0  0
  4 11  1  0  0  0  0
 11 12  1  0  0  0  0
 12 13  1  0  0  0  0
 13  7  1  0  0  0  0
 13 14  2  0  0  0  0
 14 15  1  0  0  0  0
 15 16  2  0  0  0  0
 16  8  1  0  0  0  0
  3 17  1  0  0  0  0
  2 18  1  0  0  0  0
 18 19  1  0  0  0  0
 15 20  1  0  0  0  0
M  END
>  <cdx:fragmentId>
5

$$$$
