98313.cdx
  Mrv1902 05222410262D          

 20 21  0  0  0  0            999 V2000
    8.4950   -9.6337    0.0000 C   0  0  0  0  0  0  0  0  0  0  0  0
    8.1936  -10.4017    0.0000 C   0  0  0  0  0  0  0  0  0  0  0  0
    9.3108   -9.5107    0.0000 C   0  0  0  0  0  0  0  0  0  0  0  0
    6.5313   -7.8329    0.0000 C   0  0  2  0  0  0  0  0  0  0  0  0
    6.2453   -7.0590    0.0000 H   0  0  0  0  0  0  0  0  0  0  0  0
    5.7467   -7.5779    0.0000 C   0  0  0  0  0  0  0  0  0  0  0  0
    5.2618   -8.2454    0.0000 C   0  0  0  0  0  0  0  0  0  0  0  0
    5.7467   -8.9128    0.0000 C   0  0  2  0  0  0  0  0  0  0  0  0
    5.1336   -9.4648    0.0000 C   0  0  0  0  0  0  0  0  0  0  0  0
    6.5313   -8.6579    0.0000 C   0  0  2  0  0  0  0  0  0  0  0  0
    6.3840   -9.4696    0.0000 H   0  0  0  0  0  0  0  0  0  0  0  0
    7.1764   -9.1722    0.0000 C   0  0  0  0  0  0  0  0  0  0  0  0
    7.9807   -8.9887    0.0000 C   0  0  1  0  0  0  0  0  0  0  0  0
    8.3386   -8.2454    0.0000 C   0  0  0  0  0  0  0  0  0  0  0  0
    7.9807   -7.5021    0.0000 C   0  0  0  0  0  0  0  0  0  0  0  0
    7.1764   -7.3185    0.0000 C   0  0  2  0  0  0  0  0  0  0  0  0
    7.4195   -6.5301    0.0000 C   0  0  0  0  0  0  0  0  0  0  0  0
    5.9182   -9.7198    0.0000 O   0  0  0  0  0  0  0  0  0  0  0  0
    6.6152   -6.7137    0.0000 O   0  0  0  0  0  0  0  0  0  0  0  0
    6.9928   -9.9766    0.0000 O   0  0  0  0  0  0  0  0  0  0  0  0
  1  2  1  0  0  0  0
  1  3  1  0  0  0  0
  4  5  1  6  0  0  0
  4  6  1  0  0  0  0
  6  7  1  0  0  0  0
  7  8  1  0  0  0  0
  8  9  1  1  0  0  0
  8 10  1  0  0  0  0
 10 11  1  6  0  0  0
  4 10  1  0  0  0  0
 10 12  1  0  0  0  0
 12 13  1  0  0  0  0
 13  1  1  1  0  0  0
 13 14  1  0  0  0  0
 14 15  1  0  0  0  0
 15 16  1  0  0  0  0
 16 17  1  1  0  0  0
  4 16  1  0  0  0  0
  8 18  1  6  0  0  0
 16 19  1  6  0  0  0
 12 20  2  0  0  0  0
M  END
>  <cdx:fragmentId>
11

$$$$
