98316.cdx
  Mrv1902 05222410282D          

 32 35  0  0  0  0            999 V2000
    3.3049   -6.9438    0.0000 C   0  0  0  0  0  0  0  0  0  0  0  0
    3.3049   -7.7687    0.0000 C   0  0  0  0  0  0  0  0  0  0  0  0
    4.0194   -8.1813    0.0000 C   0  0  2  0  0  0  0  0  0  0  0  0
    4.7339   -7.7687    0.0000 C   0  0  2  0  0  0  0  0  0  0  0  0
    4.7339   -6.9438    0.0000 C   0  0  1  0  0  0  0  0  0  0  0  0
    4.0194   -6.5313    0.0000 C   0  0  0  0  0  0  0  0  0  0  0  0
    5.4483   -8.1813    0.0000 C   0  0  0  0  0  0  0  0  0  0  0  0
    6.1628   -7.7687    0.0000 C   0  0  0  0  0  0  0  0  0  0  0  0
    6.1628   -6.9438    0.0000 C   0  0  2  0  0  0  0  0  0  0  0  0
    5.4483   -6.5313    0.0000 C   0  0  1  0  0  0  0  0  0  0  0  0
    6.8773   -6.5313    0.0000 C   0  0  0  0  0  0  0  0  0  0  0  0
    6.8773   -5.7062    0.0000 C   0  0  0  0  0  0  0  0  0  0  0  0
    6.1628   -5.2938    0.0000 C   0  0  0  0  0  0  0  0  0  0  0  0
    5.4483   -5.7062    0.0000 C   0  0  0  0  0  0  0  0  0  0  0  0
    4.4240   -8.8471    0.0000 C   0  0  0  0  0  0  0  0  0  0  0  0
    3.9716   -9.5370    0.0000 O   0  0  0  0  0  0  0  0  0  0  0  0
    5.2477   -8.8940    0.0000 O   0  0  0  0  0  0  0  0  0  0  0  0
    7.5918   -6.1188    0.0000 C   0  0  2  0  0  0  0  0  0  0  0  0
    6.8773   -7.3563    0.0000 C   0  0  0  0  0  0  0  0  0  0  0  0
    8.3886   -5.9052    0.0000 C   0  0  0  0  0  0  0  0  0  0  0  0
    8.9720   -6.4886    0.0000 O   0  0  0  0  0  0  0  0  0  0  0  0
    9.7689   -6.2751    0.0000 C   0  0  0  0  0  0  0  0  0  0  0  0
   10.3523   -6.8584    0.0000 C   0  0  2  0  0  0  0  0  0  0  0  0
    9.9824   -5.4782    0.0000 O   0  0  0  0  0  0  0  0  0  0  0  0
   11.1491   -6.6449    0.0000 C   0  0  0  0  0  0  0  0  0  0  0  0
   11.3627   -5.8480    0.0000 C   0  0  0  0  0  0  0  0  0  0  0  0
    8.1751   -6.7021    0.0000 H   0  0  0  0  0  0  0  0  0  0  0  0
    4.7339   -6.1188    0.0000 C   0  0  0  0  0  0  0  0  0  0  0  0
    3.5460   -8.8334    0.0000 C   0  0  0  0  0  0  0  0  0  0  0  0
    4.7339   -8.5937    0.0000 H   0  0  0  0  0  0  0  0  0  0  0  0
    5.4483   -7.3563    0.0000 H   0  0  0  0  0  0  0  0  0  0  0  0
   10.1387   -7.6553    0.0000 C   0  0  0  0  0  0  0  0  0  0  0  0
  1  2  1  0  0  0  0
  2  3  1  0  0  0  0
  3  4  1  0  0  0  0
  4  5  1  0  0  0  0
  5  6  1  0  0  0  0
  6  1  1  0  0  0  0
  4  7  1  0  0  0  0
  7  8  1  0  0  0  0
  8  9  1  0  0  0  0
  9 10  1  0  0  0  0
 10  5  1  0  0  0  0
  9 11  1  6  0  0  0
 12 11  1  6  0  0  0
 12 13  1  0  0  0  0
 13 14  1  0  0  0  0
 14 10  1  0  0  0  0
  3 15  1  6  0  0  0
 15 16  2  0  0  0  0
 15 17  1  0  0  0  0
 12 18  1  0  0  0  0
  9 19  1  0  0  0  0
 18 19  1  0  0  0  0
 18 20  1  0  0  0  0
 20 21  1  0  0  0  0
 21 22  1  0  0  0  0
 22 23  1  0  0  0  0
 22 24  2  0  0  0  0
 23 25  1  0  0  0  0
 25 26  1  0  0  0  0
 18 27  1  6  0  0  0
  5 28  1  6  0  0  0
  3 29  1  1  0  0  0
  4 30  1  1  0  0  0
 10 31  1  1  0  0  0
 23 32  1  6  0  0  0
M  END
>  <cdx:fragmentId>
5

$$$$
