98319.cdx
  Mrv1902 05222410182D          

 36 39  0  0  0  0            999 V2000
    8.4340  -10.9397    0.0000 O   0  0  0  0  0  0  0  0  0  0  0  0
    8.4340  -10.1147    0.0000 C   0  0  1  0  0  0  0  0  0  0  0  0
    7.7195   -9.7022    0.0000 C   0  0  2  0  0  0  0  0  0  0  0  0
    7.0051  -10.1147    0.0000 C   0  0  0  0  0  0  0  0  0  0  0  0
    6.2906   -9.7022    0.0000 C   0  0  0  0  0  0  0  0  0  0  0  0
    5.5761  -10.1147    0.0000 C   0  0  0  0  0  0  0  0  0  0  0  0
    5.5761  -10.9397    0.0000 C   0  0  0  0  0  0  0  0  0  0  0  0
    6.2906  -11.3522    0.0000 C   0  0  0  0  0  0  0  0  0  0  0  0
    7.0051  -10.9397    0.0000 C   0  0  0  0  0  0  0  0  0  0  0  0
    7.7195  -11.3522    0.0000 C   0  0  0  0  0  0  0  0  0  0  0  0
    9.1485   -9.7022    0.0000 C   0  0  2  0  0  0  0  0  0  0  0  0
    9.1485   -8.8772    0.0000 C   0  0  1  0  0  0  0  0  0  0  0  0
    8.4340   -8.4647    0.0000 C   0  0  2  0  0  0  0  0  0  0  0  0
    7.7195   -8.8772    0.0000 O   0  0  0  0  0  0  0  0  0  0  0  0
    7.7195  -12.1772    0.0000 O   0  0  0  0  0  0  0  0  0  0  0  0
    4.8617   -9.7022    0.0000 O   0  0  0  0  0  0  0  0  0  0  0  0
    4.1472  -10.1147    0.0000 C   0  0  0  0  0  0  0  0  0  0  0  0
    6.2906   -8.8772    0.0000 O   0  0  0  0  0  0  0  0  0  0  0  0
    4.8617  -11.3522    0.0000 O   0  0  0  0  0  0  0  0  0  0  0  0
    9.8629  -10.1147    0.0000 O   0  0  0  0  0  0  0  0  0  0  0  0
    9.8629   -8.4647    0.0000 O   0  0  0  0  0  0  0  0  0  0  0  0
    9.1485  -10.5272    0.0000 H   0  0  0  0  0  0  0  0  0  0  0  0
    7.0051   -9.2897    0.0000 H   0  0  0  0  0  0  0  0  0  0  0  0
    8.8465   -7.7503    0.0000 C   0  0  0  0  0  0  0  0  0  0  0  0
    7.7221   -6.6161    0.0000 C   0  0  2  0  0  0  0  0  0  0  0  0
    7.7225   -5.7911    0.0000 O   0  0  0  0  0  0  0  0  0  0  0  0
    7.0082   -5.3783    0.0000 C   0  0  1  0  0  0  0  0  0  0  0  0
    6.2935   -5.7905    0.0000 C   0  0  2  0  0  0  0  0  0  0  0  0
    6.2931   -6.6155    0.0000 C   0  0  1  0  0  0  0  0  0  0  0  0
    7.0074   -7.0283    0.0000 C   0  0  1  0  0  0  0  0  0  0  0  0
    5.5785   -7.0276    0.0000 O   0  0  0  0  0  0  0  0  0  0  0  0
    7.0085   -4.5533    0.0000 C   0  0  0  0  0  0  0  0  0  0  0  0
    7.0071   -7.8533    0.0000 O   0  0  0  0  0  0  0  0  0  0  0  0
    5.5792   -5.3776    0.0000 O   0  0  0  0  0  0  0  0  0  0  0  0
    6.2943   -4.1405    0.0000 O   0  0  0  0  0  0  0  0  0  0  0  0
    8.4340   -7.0358    0.0000 O   0  0  0  0  0  0  0  0  0  0  0  0
  1  2  1  0  0  0  0
  2  3  1  0  0  0  0
  3  4  1  0  0  0  0
  4  5  1  0  0  0  0
  5  6  2  0  0  0  0
  6  7  1  0  0  0  0
  7  8  2  0  0  0  0
  8  9  1  0  0  0  0
  4  9  2  0  0  0  0
  9 10  1  0  0  0  0
  1 10  1  0  0  0  0
 11 12  1  0  0  0  0
 12 13  1  0  0  0  0
 13 14  1  0  0  0  0
 11  2  1  0  0  0  0
 14  3  1  0  0  0  0
 10 15  2  0  0  0  0
 16 17  1  0  0  0  0
  6 16  1  0  0  0  0
  5 18  1  0  0  0  0
  7 19  1  0  0  0  0
 11 20  1  6  0  0  0
 12 21  1  1  0  0  0
  2 22  1  6  0  0  0
  3 23  1  1  0  0  0
 13 24  1  6  0  0  0
 25 26  1  0  0  0  0
 26 27  1  0  0  0  0
 27 28  1  0  0  0  0
 28 29  1  0  0  0  0
 29 30  1  0  0  0  0
 30 25  1  0  0  0  0
 29 31  1  1  0  0  0
 27 32  1  1  0  0  0
 30 33  1  6  0  0  0
 28 34  1  6  0  0  0
 32 35  1  0  0  0  0
 24 36  1  0  0  0  0
 25 36  1  1  0  0  0
M  END
>  <cdx:fragmentId>
5

$$$$
