98329.cdx
  Mrv1902 05222410272D          

 31 33  0  0  0  0            999 V2000
   11.4711   -7.8597    0.0000 C   0  0  0  0  0  0  0  0  0  0  0  0
   10.7566   -8.2722    0.0000 C   0  0  0  0  0  0  0  0  0  0  0  0
   10.7566   -9.0972    0.0000 C   0  0  0  0  0  0  0  0  0  0  0  0
   10.0422   -9.5097    0.0000 C   0  0  0  0  0  0  0  0  0  0  0  0
    9.3277   -9.0972    0.0000 C   0  0  0  0  0  0  0  0  0  0  0  0
    9.3277   -8.2722    0.0000 C   0  0  0  0  0  0  0  0  0  0  0  0
   10.0422   -7.8597    0.0000 C   0  0  0  0  0  0  0  0  0  0  0  0
   11.4711   -7.0347    0.0000 O   0  0  0  0  0  0  0  0  0  0  0  0
   12.1856   -8.2722    0.0000 O   0  0  0  0  0  0  0  0  0  0  0  0
    8.6132   -7.8597    0.0000 O   0  0  0  0  0  0  0  0  0  0  0  0
   11.4711   -9.5097    0.0000 O   0  0  0  0  0  0  0  0  0  0  0  0
    7.8988   -8.2722    0.0000 C   0  0  2  0  0  0  0  0  0  0  0  0
    7.1843   -7.8597    0.0000 O   0  0  0  0  0  0  0  0  0  0  0  0
    6.4698   -8.2722    0.0000 C   0  0  1  0  0  0  0  0  0  0  0  0
    6.4698   -9.0972    0.0000 C   0  0  2  0  0  0  0  0  0  0  0  0
    7.1843   -9.5097    0.0000 C   0  0  1  0  0  0  0  0  0  0  0  0
    7.8988   -9.0972    0.0000 C   0  0  1  0  0  0  0  0  0  0  0  0
    5.7553   -7.8597    0.0000 C   0  0  0  0  0  0  0  0  0  0  0  0
    7.1843  -10.3347    0.0000 O   0  0  0  0  0  0  0  0  0  0  0  0
    5.7553   -9.5097    0.0000 O   0  0  0  0  0  0  0  0  0  0  0  0
    8.6132   -9.5097    0.0000 O   0  0  0  0  0  0  0  0  0  0  0  0
    5.0409   -8.2722    0.0000 O   0  0  0  0  0  0  0  0  0  0  0  0
    4.3264   -7.8597    0.0000 C   0  0  0  0  0  0  0  0  0  0  0  0
    3.6119   -8.2722    0.0000 C   0  0  0  0  0  0  0  0  0  0  0  0
    4.3264   -7.0347    0.0000 O   0  0  0  0  0  0  0  0  0  0  0  0
    2.8975   -7.8597    0.0000 C   0  0  0  0  0  0  0  0  0  0  0  0
    2.1830   -8.2722    0.0000 C   0  0  0  0  0  0  0  0  0  0  0  0
    2.1830   -9.0972    0.0000 C   0  0  0  0  0  0  0  0  0  0  0  0
    2.8975   -9.5097    0.0000 C   0  0  0  0  0  0  0  0  0  0  0  0
    3.6119   -9.0972    0.0000 C   0  0  0  0  0  0  0  0  0  0  0  0
    2.8975   -7.0347    0.0000 O   0  0  0  0  0  0  0  0  0  0  0  0
  1  2  1  0  0  0  0
  2  3  1  0  0  0  0
  3  4  2  0  0  0  0
  4  5  1  0  0  0  0
  5  6  2  0  0  0  0
  6  7  1  0  0  0  0
  2  7  2  0  0  0  0
  1  8  2  0  0  0  0
  1  9  1  0  0  0  0
  6 10  1  0  0  0  0
  3 11  1  0  0  0  0
 12 10  1  1  0  0  0
 12 13  1  0  0  0  0
 13 14  1  0  0  0  0
 14 15  1  0  0  0  0
 15 16  1  0  0  0  0
 16 17  1  0  0  0  0
 17 12  1  0  0  0  0
 14 18  1  1  0  0  0
 16 19  1  1  0  0  0
 15 20  1  6  0  0  0
 17 21  1  6  0  0  0
 18 22  1  0  0  0  0
 22 23  1  0  0  0  0
 23 24  1  0  0  0  0
 23 25  2  0  0  0  0
 24 26  2  0  0  0  0
 26 27  1  0  0  0  0
 27 28  2  0  0  0  0
 28 29  1  0  0  0  0
 29 30  2  0  0  0  0
 30 24  1  0  0  0  0
 26 31  1  0  0  0  0
M  END
>  <cdx:fragmentId>
5

$$$$
