9832.cdx
  Mrv1902 05222410272D          

 57 61  0  0  0  0            999 V2000
    9.0191   -9.8846    0.0000 C   0  0  0  0  0  0  0  0  0  0  0  0
    8.3047  -10.2971    0.0000 C   0  0  1  0  0  0  0  0  0  0  0  0
    8.3047  -11.3696    0.0000 C   0  0  1  0  0  0  0  0  0  0  0  0
    9.0191   -9.0596    0.0000 O   0  0  0  0  0  0  0  0  0  0  0  0
    9.7336  -10.2971    0.0000 O   0  0  0  0  0  0  0  0  0  0  0  0
    9.0191  -11.7821    0.0000 O   0  0  0  0  0  0  0  0  0  0  0  0
    9.0191  -12.6071    0.0000 C   0  0  0  0  0  0  0  0  0  0  0  0
    9.7336  -13.0196    0.0000 C   0  0  0  0  0  0  0  0  0  0  0  0
   10.4481  -12.6071    0.0000 C   0  0  0  0  0  0  0  0  0  0  0  0
   11.1625  -13.0196    0.0000 C   0  0  0  0  0  0  0  0  0  0  0  0
   11.1625  -13.8446    0.0000 C   0  0  0  0  0  0  0  0  0  0  0  0
   10.4481  -14.2571    0.0000 C   0  0  0  0  0  0  0  0  0  0  0  0
    9.7336  -13.8446    0.0000 C   0  0  0  0  0  0  0  0  0  0  0  0
    8.3047  -13.0196    0.0000 O   0  0  0  0  0  0  0  0  0  0  0  0
   10.4481  -15.0821    0.0000 O   0  0  0  0  0  0  0  0  0  0  0  0
   11.8770  -14.2571    0.0000 O   0  0  0  0  0  0  0  0  0  0  0  0
   11.8770  -12.6071    0.0000 O   0  0  0  0  0  0  0  0  0  0  0  0
    7.5902   -9.8846    0.0000 O   0  0  0  0  0  0  0  0  0  0  0  0
    7.5902   -8.5646    0.0000 C   0  0  0  0  0  0  0  0  0  0  0  0
    8.3047   -8.1521    0.0000 C   0  0  0  0  0  0  0  0  0  0  0  0
    8.3047   -7.3271    0.0000 C   0  0  0  0  0  0  0  0  0  0  0  0
    9.0191   -6.9146    0.0000 C   0  0  0  0  0  0  0  0  0  0  0  0
    9.7336   -7.3271    0.0000 C   0  0  0  0  0  0  0  0  0  0  0  0
    9.7336   -8.1521    0.0000 C   0  0  0  0  0  0  0  0  0  0  0  0
    9.0191   -8.5646    0.0000 C   0  0  0  0  0  0  0  0  0  0  0  0
    6.8757   -8.1521    0.0000 O   0  0  0  0  0  0  0  0  0  0  0  0
   10.4481   -8.5646    0.0000 O   0  0  0  0  0  0  0  0  0  0  0  0
   10.4481   -6.9146    0.0000 O   0  0  0  0  0  0  0  0  0  0  0  0
    9.0191   -6.0896    0.0000 O   0  0  0  0  0  0  0  0  0  0  0  0
    4.6490  -10.7063    0.0000 C   0  0  0  0  0  0  0  0  0  0  0  0
    5.2324  -10.1229    0.0000 C   0  0  0  0  0  0  0  0  0  0  0  0
    4.8199   -9.4084    0.0000 C   0  0  0  0  0  0  0  0  0  0  0  0
    5.2324   -8.6940    0.0000 C   0  0  0  0  0  0  0  0  0  0  0  0
    6.0574   -8.6940    0.0000 C   0  0  0  0  0  0  0  0  0  0  0  0
    6.4699   -9.4084    0.0000 C   0  0  0  0  0  0  0  0  0  0  0  0
    6.0574  -10.1229    0.0000 C   0  0  0  0  0  0  0  0  0  0  0  0
    6.6408  -10.7063    0.0000 C   0  0  0  0  0  0  0  0  0  0  0  0
    6.6408  -11.5313    0.0000 O   0  0  0  0  0  0  0  0  0  0  0  0
    7.3758  -11.9058    0.0000 C   0  0  2  0  0  0  0  0  0  0  0  0
    7.2468  -12.7207    0.0000 C   0  0  1  0  0  0  0  0  0  0  0  0
    6.4319  -12.8497    0.0000 C   0  0  0  0  0  0  0  0  0  0  0  0
    6.0574  -12.1146    0.0000 O   0  0  0  0  0  0  0  0  0  0  0  0
    5.2324  -12.1146    0.0000 C   0  0  0  0  0  0  0  0  0  0  0  0
    4.6490  -11.5313    0.0000 C   0  0  0  0  0  0  0  0  0  0  0  0
    3.9346  -11.9438    0.0000 C   0  0  0  0  0  0  0  0  0  0  0  0
    3.2201  -11.5313    0.0000 C   0  0  0  0  0  0  0  0  0  0  0  0
    3.2201  -10.7063    0.0000 C   0  0  0  0  0  0  0  0  0  0  0  0
    3.9346  -10.2938    0.0000 C   0  0  0  0  0  0  0  0  0  0  0  0
    4.9167  -12.8768    0.0000 O   0  0  0  0  0  0  0  0  0  0  0  0
    7.4030  -10.3906    0.0000 O   0  0  0  0  0  0  0  0  0  0  0  0
    3.6524   -9.5185    0.0000 O   0  0  0  0  0  0  0  0  0  0  0  0
    2.5056  -10.2938    0.0000 O   0  0  0  0  0  0  0  0  0  0  0  0
    2.5056  -11.9438    0.0000 O   0  0  0  0  0  0  0  0  0  0  0  0
    7.8301  -13.3040    0.0000 O   0  0  0  0  0  0  0  0  0  0  0  0
    6.4699   -7.9795    0.0000 O   0  0  0  0  0  0  0  0  0  0  0  0
    4.8199   -7.9795    0.0000 O   0  0  0  0  0  0  0  0  0  0  0  0
    4.0447   -9.1263    0.0000 O   0  0  0  0  0  0  0  0  0  0  0  0
  1  2  1  0  0  0  0
  2  3  1  0  0  0  0
  1  4  2  0  0  0  0
  1  5  1  0  0  0  0
  7  8  1  0  0  0  0
  8  9  1  0  0  0  0
  9 10  2  0  0  0  0
 10 11  1  0  0  0  0
 11 12  2  0  0  0  0
 12 13  1  0  0  0  0
  8 13  2  0  0  0  0
  7 14  2  0  0  0  0
 12 15  1  0  0  0  0
 11 16  1  0  0  0  0
 10 17  1  0  0  0  0
  6  7  1  0  0  0  0
  3  6  1  1  0  0  0
 19 20  1  0  0  0  0
 20 21  1  0  0  0  0
 21 22  2  0  0  0  0
 22 23  1  0  0  0  0
 23 24  2  0  0  0  0
 24 25  1  0  0  0  0
 20 25  2  0  0  0  0
 19 26  2  0  0  0  0
 24 27  1  0  0  0  0
 23 28  1  0  0  0  0
 22 29  1  0  0  0  0
 18 19  1  0  0  0  0
  2 18  1  1  0  0  0
 30 31  1  0  0  0  0
 31 32  2  0  0  0  0
 32 33  1  0  0  0  0
 33 34  2  0  0  0  0
 34 35  1  0  0  0  0
 35 36  2  0  0  0  0
 36 37  1  0  0  0  0
 37 38  1  0  0  0  0
 39 38  1  1  0  0  0
 39 40  1  0  0  0  0
 40 41  1  0  0  0  0
 41 42  1  0  0  0  0
 42 43  1  0  0  0  0
 43 44  1  0  0  0  0
 44 45  2  0  0  0  0
 45 46  1  0  0  0  0
 46 47  2  0  0  0  0
 47 48  1  0  0  0  0
 30 48  2  0  0  0  0
 30 44  1  0  0  0  0
 31 36  1  0  0  0  0
 43 49  2  0  0  0  0
 37 50  2  0  0  0  0
 48 51  1  0  0  0  0
 47 52  1  0  0  0  0
 46 53  1  0  0  0  0
 40 54  1  6  0  0  0
 34 55  1  0  0  0  0
 33 56  1  0  0  0  0
 32 57  1  0  0  0  0
  3 39  1  0  0  0  0
M  END
>  <cdx:fragmentId>
171942

$$$$
