98321.cdx
  Mrv1902 05222410202D          

 29 31  0  0  0  0            999 V2000
    9.6497   -6.7144    0.0000 C   0  0  0  0  0  0  0  0  0  0  0  0
   10.0574   -5.9972    0.0000 C   0  0  0  0  0  0  0  0  0  0  0  0
    9.6401   -5.2855    0.0000 C   0  0  0  0  0  0  0  0  0  0  0  0
    8.8151   -5.2911    0.0000 C   0  0  0  0  0  0  0  0  0  0  0  0
    8.4074   -6.0083    0.0000 C   0  0  0  0  0  0  0  0  0  0  0  0
    8.8247   -6.7200    0.0000 C   0  0  0  0  0  0  0  0  0  0  0  0
    7.5824   -6.0139    0.0000 C   0  0  0  0  0  0  0  0  0  0  0  0
    7.1651   -5.3022    0.0000 C   0  0  0  0  0  0  0  0  0  0  0  0
    6.3401   -5.3078    0.0000 C   0  0  0  0  0  0  0  0  0  0  0  0
    5.9228   -4.5962    0.0000 C   0  0  0  0  0  0  0  0  0  0  0  0
    5.0978   -4.6017    0.0000 C   0  0  0  0  0  0  0  0  0  0  0  0
    4.6902   -5.3190    0.0000 C   0  0  0  0  0  0  0  0  0  0  0  0
    5.1075   -6.0306    0.0000 C   0  0  0  0  0  0  0  0  0  0  0  0
    5.9325   -6.0251    0.0000 C   0  0  0  0  0  0  0  0  0  0  0  0
    3.8652   -5.3246    0.0000 O   0  0  0  0  0  0  0  0  0  0  0  0
    8.4171   -7.4372    0.0000 O   0  0  0  0  0  0  0  0  0  0  0  0
    7.7148   -7.8702    0.0000 C   0  0  2  0  0  0  0  0  0  0  0  0
    6.9887   -7.4785    0.0000 O   0  0  0  0  0  0  0  0  0  0  0  0
    6.2865   -7.9114    0.0000 C   0  0  1  0  0  0  0  0  0  0  0  0
    6.3102   -8.7360    0.0000 C   0  0  2  0  0  0  0  0  0  0  0  0
    7.0363   -9.1278    0.0000 C   0  0  1  0  0  0  0  0  0  0  0  0
    7.7386   -8.6948    0.0000 C   0  0  1  0  0  0  0  0  0  0  0  0
    7.0601   -9.9524    0.0000 O   0  0  0  0  0  0  0  0  0  0  0  0
    5.5604   -7.5197    0.0000 C   0  0  0  0  0  0  0  0  0  0  0  0
    5.6080   -9.1690    0.0000 O   0  0  0  0  0  0  0  0  0  0  0  0
    8.4647   -9.0866    0.0000 O   0  0  0  0  0  0  0  0  0  0  0  0
    4.8515   -7.9417    0.0000 O   0  0  0  0  0  0  0  0  0  0  0  0
   10.8824   -5.9916    0.0000 O   0  0  0  0  0  0  0  0  0  0  0  0
    8.3978   -4.5794    0.0000 O   0  0  0  0  0  0  0  0  0  0  0  0
  1  2  2  0  0  0  0
  2  3  1  0  0  0  0
  3  4  2  0  0  0  0
  4  5  1  0  0  0  0
  5  6  2  0  0  0  0
  6  1  1  0  0  0  0
  5  7  1  0  0  0  0
  7  8  2  0  0  0  0
  8  9  1  0  0  0  0
  9 10  2  0  0  0  0
 10 11  1  0  0  0  0
 11 12  2  0  0  0  0
 12 13  1  0  0  0  0
 13 14  2  0  0  0  0
 14  9  1  0  0  0  0
 12 15  1  0  0  0  0
  6 16  1  0  0  0  0
 17 16  1  1  0  0  0
 17 18  1  0  0  0  0
 18 19  1  0  0  0  0
 19 20  1  0  0  0  0
 20 21  1  0  0  0  0
 21 22  1  0  0  0  0
 22 17  1  0  0  0  0
 21 23  1  1  0  0  0
 19 24  1  1  0  0  0
 20 25  1  6  0  0  0
 22 26  1  6  0  0  0
 24 27  1  0  0  0  0
  2 28  1  0  0  0  0
  4 29  1  0  0  0  0
M  END
>  <cdx:fragmentId>
5

$$$$
