98327.cdx
  Mrv1902 05222410182D          

 43 47  0  0  0  0            999 V2000
    1.1022   -7.2325    0.0000 C   0  0  0  0  0  0  0  0  0  0  0  0
    1.1022   -7.9750    0.0000 C   0  0  0  0  0  0  0  0  0  0  0  0
    1.7453   -8.3462    0.0000 C   0  0  0  0  0  0  0  0  0  0  0  0
    2.3883   -7.9750    0.0000 C   0  0  0  0  0  0  0  0  0  0  0  0
    2.3883   -7.2325    0.0000 C   0  0  0  0  0  0  0  0  0  0  0  0
    1.7453   -6.8613    0.0000 C   0  0  0  0  0  0  0  0  0  0  0  0
    3.6743   -7.2325    0.0000 C   0  0  0  0  0  0  0  0  0  0  0  0
    3.0313   -6.8613    0.0000 C   0  0  0  0  0  0  0  0  0  0  0  0
    4.9604   -7.2325    0.0000 O   0  0  0  0  0  0  0  0  0  0  0  0
    4.3174   -6.8613    0.0000 C   0  0  0  0  0  0  0  0  0  0  0  0
    5.6034   -8.3462    0.0000 O   0  0  0  0  0  0  0  0  0  0  0  0
    6.2464   -7.9750    0.0000 C   0  0  1  0  0  0  0  0  0  0  0  0
    6.2464   -7.2325    0.0000 C   0  0  1  0  0  0  0  0  0  0  0  0
    5.6034   -6.8613    0.0000 C   0  0  0  0  0  0  0  0  0  0  0  0
    6.8894   -8.3462    0.0000 C   0  0  2  0  0  0  0  0  0  0  0  0
    7.5325   -7.9750    0.0000 C   0  0  1  0  0  0  0  0  0  0  0  0
    7.5325   -7.2325    0.0000 O   0  0  0  0  0  0  0  0  0  0  0  0
    6.8894   -6.8613    0.0000 C   0  0  0  0  0  0  0  0  0  0  0  0
    8.1755   -8.3462    0.0000 O   0  0  0  0  0  0  0  0  0  0  0  0
    8.8185   -7.9750    0.0000 C   0  0  0  0  0  0  0  0  0  0  0  0
    8.8185   -7.2325    0.0000 C   0  0  0  0  0  0  0  0  0  0  0  0
    9.4615   -8.3462    0.0000 C   0  0  0  0  0  0  0  0  0  0  0  0
   10.1046   -7.9750    0.0000 C   0  0  0  0  0  0  0  0  0  0  0  0
   10.1046   -7.2325    0.0000 C   0  0  0  0  0  0  0  0  0  0  0  0
    9.4615   -6.8613    0.0000 C   0  0  0  0  0  0  0  0  0  0  0  0
   10.7476   -8.3462    0.0000 O   0  0  0  0  0  0  0  0  0  0  0  0
   11.3906   -7.9750    0.0000 C   0  0  0  0  0  0  0  0  0  0  0  0
   11.3906   -7.2325    0.0000 C   0  0  0  0  0  0  0  0  0  0  0  0
   10.7476   -6.8613    0.0000 C   0  0  0  0  0  0  0  0  0  0  0  0
   12.0336   -9.0887    0.0000 C   0  0  0  0  0  0  0  0  0  0  0  0
   12.0336   -8.3462    0.0000 C   0  0  0  0  0  0  0  0  0  0  0  0
   12.6767   -9.4600    0.0000 C   0  0  0  0  0  0  0  0  0  0  0  0
   13.3197   -9.0887    0.0000 C   0  0  0  0  0  0  0  0  0  0  0  0
   13.3197   -8.3462    0.0000 C   0  0  0  0  0  0  0  0  0  0  0  0
   12.6767   -7.9750    0.0000 C   0  0  0  0  0  0  0  0  0  0  0  0
    0.4592   -8.3462    0.0000 O   0  0  0  0  0  0  0  0  0  0  0  0
    4.3174   -6.1188    0.0000 O   0  0  0  0  0  0  0  0  0  0  0  0
    9.4615   -6.1188    0.0000 O   0  0  0  0  0  0  0  0  0  0  0  0
   10.7476   -6.1188    0.0000 O   0  0  0  0  0  0  0  0  0  0  0  0
   12.0336   -6.8612    0.0000 O   0  0  0  0  0  0  0  0  0  0  0  0
   13.9627   -9.4600    0.0000 O   0  0  0  0  0  0  0  0  0  0  0  0
    6.2464   -6.4900    0.0000 O   0  0  0  0  0  0  0  0  0  0  0  0
    6.8894   -9.0887    0.0000 O   0  0  0  0  0  0  0  0  0  0  0  0
  1  2  2  0  0  0  0
  2  3  1  0  0  0  0
  3  4  2  0  0  0  0
  4  5  1  0  0  0  0
  5  6  2  0  0  0  0
  6  1  1  0  0  0  0
  7  8  2  0  0  0  0
  8  5  1  0  0  0  0
  9 10  1  0  0  0  0
 10  7  1  0  0  0  0
 12 11  1  1  0  0  0
 12 13  1  0  0  0  0
 13 14  1  0  0  0  0
 14  9  1  0  0  0  0
 12 15  1  0  0  0  0
 15 16  1  0  0  0  0
 16 17  1  0  0  0  0
 17 18  1  0  0  0  0
 18 13  1  0  0  0  0
 16 19  1  1  0  0  0
 19 20  1  0  0  0  0
 20 21  2  0  0  0  0
 20 22  1  0  0  0  0
 22 23  2  0  0  0  0
 23 24  1  0  0  0  0
 24 25  2  0  0  0  0
 25 21  1  0  0  0  0
 23 26  1  0  0  0  0
 26 27  1  0  0  0  0
 27 28  2  0  0  0  0
 28 29  1  0  0  0  0
 29 24  1  0  0  0  0
 30 31  2  0  0  0  0
 31 27  1  0  0  0  0
 30 32  1  0  0  0  0
 32 33  2  0  0  0  0
 33 34  1  0  0  0  0
 34 35  2  0  0  0  0
 35 31  1  0  0  0  0
  2 36  1  0  0  0  0
 10 37  2  0  0  0  0
 25 38  1  0  0  0  0
 29 39  2  0  0  0  0
 28 40  1  0  0  0  0
 33 41  1  0  0  0  0
 13 42  1  6  0  0  0
 15 43  1  6  0  0  0
M  END
>  <cdx:fragmentId>
5

$$$$
