98325.cdx
  Mrv1902 05222410182D          

 13 14  0  0  0  0            999 V2000
    5.5187   -7.3150    0.0000 C   0  0  2  0  0  0  0  0  0  0  0  0
    5.5187   -8.1400    0.0000 C   0  0  0  0  0  0  0  0  0  0  0  0
    6.2331   -8.5525    0.0000 C   0  0  1  0  0  0  0  0  0  0  0  0
    6.9476   -8.1400    0.0000 N   0  0  0  0  0  0  0  0  0  0  0  0
    6.9476   -7.3150    0.0000 C   0  0  2  0  0  0  0  0  0  0  0  0
    6.2331   -6.9025    0.0000 C   0  0  0  0  0  0  0  0  0  0  0  0
    7.6621   -8.5525    0.0000 C   0  0  0  0  0  0  0  0  0  0  0  0
    8.3766   -8.1400    0.0000 C   0  0  0  0  0  0  0  0  0  0  0  0
    8.3766   -7.3150    0.0000 C   0  0  0  0  0  0  0  0  0  0  0  0
    7.6621   -6.9025    0.0000 C   0  0  0  0  0  0  0  0  0  0  0  0
    6.9476   -6.4900    0.0000 H   0  0  0  0  0  0  0  0  0  0  0  0
    4.8042   -6.9025    0.0000 C   0  0  0  0  0  0  0  0  0  0  0  0
    6.2331   -9.3775    0.0000 C   0  0  0  0  0  0  0  0  0  0  0  0
  1  2  1  0  0  0  0
  2  3  1  0  0  0  0
  3  4  1  0  0  0  0
  4  5  1  0  0  0  0
  5  6  1  0  0  0  0
  6  1  1  0  0  0  0
  4  7  1  0  0  0  0
  7  8  1  0  0  0  0
  8  9  1  0  0  0  0
  9 10  1  0  0  0  0
 10  5  1  0  0  0  0
  5 11  1  1  0  0  0
  1 12  1  1  0  0  0
  3 13  1  1  0  0  0
M  END
>  <cdx:fragmentId>
5

$$$$
