98322.cdx
  Mrv1902 05222410202D          

 43 47  0  0  0  0            999 V2000
    9.0506   -7.1643    0.0000 C   0  0  0  0  0  0  0  0  0  0  0  0
    9.0506   -7.9893    0.0000 C   0  0  0  0  0  0  0  0  0  0  0  0
    8.3361   -8.4018    0.0000 C   0  0  0  0  0  0  0  0  0  0  0  0
    8.3361   -9.2268    0.0000 O   0  0  0  0  0  0  0  0  0  0  0  0
    7.6216   -7.9893    0.0000 C   0  0  0  0  0  0  0  0  0  0  0  0
    6.9072   -8.4018    0.0000 C   0  0  0  0  0  0  0  0  0  0  0  0
    6.1927   -7.9893    0.0000 C   0  0  0  0  0  0  0  0  0  0  0  0
    6.1927   -7.1643    0.0000 C   0  0  0  0  0  0  0  0  0  0  0  0
    5.4782   -6.7518    0.0000 O   0  0  0  0  0  0  0  0  0  0  0  0
    6.9072   -6.7518    0.0000 C   0  0  0  0  0  0  0  0  0  0  0  0
    7.6216   -7.1643    0.0000 C   0  0  0  0  0  0  0  0  0  0  0  0
    8.3361   -6.7518    0.0000 O   0  0  0  0  0  0  0  0  0  0  0  0
    9.7650   -6.7518    0.0000 C   0  0  0  0  0  0  0  0  0  0  0  0
   10.4795   -7.1643    0.0000 C   0  0  0  0  0  0  0  0  0  0  0  0
   11.1940   -6.7518    0.0000 C   0  0  0  0  0  0  0  0  0  0  0  0
   11.9085   -7.1643    0.0000 O   0  0  0  0  0  0  0  0  0  0  0  0
   11.1940   -5.9268    0.0000 C   0  0  0  0  0  0  0  0  0  0  0  0
   11.9085   -5.5143    0.0000 O   0  0  0  0  0  0  0  0  0  0  0  0
   10.4795   -5.5143    0.0000 C   0  0  0  0  0  0  0  0  0  0  0  0
    9.7650   -5.9268    0.0000 C   0  0  0  0  0  0  0  0  0  0  0  0
    5.4782   -8.4018    0.0000 C   0  0  1  0  0  0  0  0  0  0  0  0
    5.4437   -9.2287    0.0000 C   0  0  2  0  0  0  0  0  0  0  0  0
    6.1553   -9.6461    0.0000 O   0  0  0  0  0  0  0  0  0  0  0  0
    4.7264   -9.6362    0.0000 C   0  0  1  0  0  0  0  0  0  0  0  0
    4.7206  -10.4612    0.0000 O   0  0  0  0  0  0  0  0  0  0  0  0
    4.0148   -9.2188    0.0000 C   0  0  1  0  0  0  0  0  0  0  0  0
    3.2974   -9.6263    0.0000 O   0  0  0  0  0  0  0  0  0  0  0  0
    4.0205   -8.3938    0.0000 C   0  0  0  0  0  0  0  0  0  0  0  0
    4.7378   -7.9863    0.0000 O   0  0  0  0  0  0  0  0  0  0  0  0
    6.9072   -9.2268    0.0000 O   0  0  0  0  0  0  0  0  0  0  0  0
    6.1495  -10.4711    0.0000 C   0  0  2  0  0  0  0  0  0  0  0  0
    5.4322  -10.8786    0.0000 O   0  0  0  0  0  0  0  0  0  0  0  0
    5.4265  -11.7036    0.0000 C   0  0  1  0  0  0  0  0  0  0  0  0
    6.1381  -12.1211    0.0000 C   0  0  2  0  0  0  0  0  0  0  0  0
    6.8554  -11.7135    0.0000 C   0  0  1  0  0  0  0  0  0  0  0  0
    6.8611  -10.8886    0.0000 C   0  0  1  0  0  0  0  0  0  0  0  0
    4.7092  -12.1112    0.0000 C   0  0  0  0  0  0  0  0  0  0  0  0
    7.5670  -12.1310    0.0000 O   0  0  0  0  0  0  0  0  0  0  0  0
    6.1324  -12.9460    0.0000 O   0  0  0  0  0  0  0  0  0  0  0  0
    7.5784  -10.4810    0.0000 O   0  0  0  0  0  0  0  0  0  0  0  0
    3.9976  -11.6937    0.0000 O   0  0  0  0  0  0  0  0  0  0  0  0
    4.7035  -12.9361    0.0000 O   0  0  0  0  0  0  0  0  0  0  0  0
    5.5128   -7.5749    0.0000 H   0  0  0  0  0  0  0  0  0  0  0  0
  1  2  2  0  0  0  0
  2  3  1  0  0  0  0
  3  4  2  0  0  0  0
  3  5  1  0  0  0  0
  5  6  1  0  0  0  0
  6  7  2  0  0  0  0
  7  8  1  0  0  0  0
  8  9  1  0  0  0  0
  8 10  2  0  0  0  0
 10 11  1  0  0  0  0
  5 11  2  0  0  0  0
 11 12  1  0  0  0  0
  1 12  1  0  0  0  0
  1 13  1  0  0  0  0
 13 14  1  0  0  0  0
 14 15  2  0  0  0  0
 15 16  1  0  0  0  0
 15 17  1  0  0  0  0
 17 18  1  0  0  0  0
 17 19  2  0  0  0  0
 19 20  1  0  0  0  0
 13 20  2  0  0  0  0
 22 23  1  6  0  0  0
 22 24  1  0  0  0  0
 24 25  1  1  0  0  0
 24 26  1  0  0  0  0
 26 27  1  1  0  0  0
 26 28  1  0  0  0  0
 28 29  1  0  0  0  0
  7 21  1  0  0  0  0
  6 30  1  0  0  0  0
 31 23  1  1  0  0  0
 31 32  1  0  0  0  0
 32 33  1  0  0  0  0
 33 34  1  0  0  0  0
 34 35  1  0  0  0  0
 35 36  1  0  0  0  0
 36 31  1  0  0  0  0
 33 37  1  1  0  0  0
 35 38  1  1  0  0  0
 34 39  1  6  0  0  0
 36 40  1  6  0  0  0
 37 41  2  0  0  0  0
 37 42  1  0  0  0  0
 21 22  1  0  0  0  0
 21 29  1  0  0  0  0
 21 43  1  6  0  0  0
M  END
>  <cdx:fragmentId>
5

$$$$
