98328.cdx
  Mrv1902 05222410272D          

 24 25  0  0  0  0            999 V2000
    8.0595   -8.2585    0.0000 C   0  0  0  0  0  0  0  0  0  0  0  0
    8.7739   -7.8460    0.0000 C   0  0  0  0  0  0  0  0  0  0  0  0
    8.7739   -7.0210    0.0000 C   0  0  0  0  0  0  0  0  0  0  0  0
    8.0595   -6.6085    0.0000 C   0  0  0  0  0  0  0  0  0  0  0  0
    7.3450   -7.0210    0.0000 C   0  0  0  0  0  0  0  0  0  0  0  0
    7.3450   -7.8460    0.0000 C   0  0  0  0  0  0  0  0  0  0  0  0
    6.6305   -8.2585    0.0000 O   0  0  0  0  0  0  0  0  0  0  0  0
    5.9160   -7.8460    0.0000 C   0  0  0  0  0  0  0  0  0  0  0  0
    9.4884   -8.2585    0.0000 O   0  0  0  0  0  0  0  0  0  0  0  0
   10.2029   -7.8460    0.0000 C   0  0  0  0  0  0  0  0  0  0  0  0
    8.0595   -5.7835    0.0000 C   0  0  0  0  0  0  0  0  0  0  0  0
    8.7739   -5.3710    0.0000 O   0  0  0  0  0  0  0  0  0  0  0  0
    8.0595   -9.0835    0.0000 O   0  0  0  0  0  0  0  0  0  0  0  0
    7.3450   -9.4960    0.0000 C   0  0  1  0  0  0  0  0  0  0  0  0
    7.3450  -10.3210    0.0000 C   0  0  2  0  0  0  0  0  0  0  0  0
    8.0595  -10.7335    0.0000 O   0  0  0  0  0  0  0  0  0  0  0  0
    6.6305  -10.7335    0.0000 C   0  0  1  0  0  0  0  0  0  0  0  0
    6.6305  -11.5585    0.0000 O   0  0  0  0  0  0  0  0  0  0  0  0
    5.9160  -10.3210    0.0000 C   0  0  2  0  0  0  0  0  0  0  0  0
    5.2016  -10.7335    0.0000 O   0  0  0  0  0  0  0  0  0  0  0  0
    5.9160   -9.4960    0.0000 C   0  0  2  0  0  0  0  0  0  0  0  0
    6.6305   -9.0835    0.0000 O   0  0  0  0  0  0  0  0  0  0  0  0
    5.2016   -9.0835    0.0000 C   0  0  0  0  0  0  0  0  0  0  0  0
    4.4871   -9.4960    0.0000 O   0  0  0  0  0  0  0  0  0  0  0  0
  1  2  1  0  0  0  0
  2  3  2  0  0  0  0
  3  4  1  0  0  0  0
  4  5  2  0  0  0  0
  5  6  1  0  0  0  0
  1  6  2  0  0  0  0
  7  8  1  0  0  0  0
  6  7  1  0  0  0  0
  9 10  1  0  0  0  0
  2  9  1  0  0  0  0
 11 12  1  0  0  0  0
  4 11  1  0  0  0  0
 14 13  1  1  0  0  0
 14 15  1  0  0  0  0
 15 16  1  6  0  0  0
 15 17  1  0  0  0  0
 17 18  1  1  0  0  0
 17 19  1  0  0  0  0
 19 20  1  6  0  0  0
 19 21  1  0  0  0  0
 21 22  1  0  0  0  0
 21 23  1  1  0  0  0
 23 24  1  0  0  0  0
 14 22  1  0  0  0  0
  1 13  1  0  0  0  0
M  END
>  <cdx:fragmentId>
27

$$$$
