98323.cdx
  Mrv1902 05222410202D          

 45 49  0  0  0  0            999 V2000
    8.9131   -6.8893    0.0000 C   0  0  0  0  0  0  0  0  0  0  0  0
    8.9131   -7.7143    0.0000 C   0  0  0  0  0  0  0  0  0  0  0  0
    8.1986   -8.1268    0.0000 C   0  0  0  0  0  0  0  0  0  0  0  0
    8.1986   -8.9518    0.0000 O   0  0  0  0  0  0  0  0  0  0  0  0
    7.4841   -7.7143    0.0000 C   0  0  0  0  0  0  0  0  0  0  0  0
    6.7697   -8.1268    0.0000 C   0  0  0  0  0  0  0  0  0  0  0  0
    6.0552   -7.7143    0.0000 C   0  0  0  0  0  0  0  0  0  0  0  0
    6.0552   -6.8893    0.0000 C   0  0  0  0  0  0  0  0  0  0  0  0
    5.3407   -6.4768    0.0000 O   0  0  0  0  0  0  0  0  0  0  0  0
    6.7697   -6.4768    0.0000 C   0  0  0  0  0  0  0  0  0  0  0  0
    7.4841   -6.8893    0.0000 C   0  0  0  0  0  0  0  0  0  0  0  0
    8.1986   -6.4768    0.0000 O   0  0  0  0  0  0  0  0  0  0  0  0
    9.6275   -6.4768    0.0000 C   0  0  0  0  0  0  0  0  0  0  0  0
   10.3420   -6.8893    0.0000 C   0  0  0  0  0  0  0  0  0  0  0  0
   11.0565   -6.4768    0.0000 C   0  0  0  0  0  0  0  0  0  0  0  0
   11.7710   -6.8893    0.0000 O   0  0  0  0  0  0  0  0  0  0  0  0
   11.0565   -5.6518    0.0000 C   0  0  0  0  0  0  0  0  0  0  0  0
   11.7710   -5.2393    0.0000 O   0  0  0  0  0  0  0  0  0  0  0  0
   10.3420   -5.2393    0.0000 C   0  0  0  0  0  0  0  0  0  0  0  0
    9.6275   -5.6518    0.0000 C   0  0  0  0  0  0  0  0  0  0  0  0
    5.3407   -8.1268    0.0000 C   0  0  1  0  0  0  0  0  0  0  0  0
    5.3367   -8.9495    0.0000 C   0  0  2  0  0  0  0  0  0  0  0  0
    6.0483   -9.3671    0.0000 O   0  0  0  0  0  0  0  0  0  0  0  0
    4.6193   -9.3569    0.0000 C   0  0  1  0  0  0  0  0  0  0  0  0
    4.6135  -10.1819    0.0000 O   0  0  0  0  0  0  0  0  0  0  0  0
    3.9078   -8.9394    0.0000 C   0  0  2  0  0  0  0  0  0  0  0  0
    3.1904   -9.3468    0.0000 O   0  0  0  0  0  0  0  0  0  0  0  0
    3.9137   -8.1144    0.0000 C   0  0  2  0  0  0  0  0  0  0  0  0
    4.6311   -7.7070    0.0000 O   0  0  0  0  0  0  0  0  0  0  0  0
    6.7697   -8.9518    0.0000 O   0  0  0  0  0  0  0  0  0  0  0  0
    6.0424  -10.1921    0.0000 C   0  0  2  0  0  0  0  0  0  0  0  0
    5.3250  -10.5995    0.0000 O   0  0  0  0  0  0  0  0  0  0  0  0
    5.3191  -11.4245    0.0000 C   0  0  1  0  0  0  0  0  0  0  0  0
    6.0306  -11.8420    0.0000 C   0  0  2  0  0  0  0  0  0  0  0  0
    6.7480  -11.4346    0.0000 C   0  0  1  0  0  0  0  0  0  0  0  0
    6.7539  -10.6097    0.0000 C   0  0  1  0  0  0  0  0  0  0  0  0
    4.6017  -11.8319    0.0000 C   0  0  0  0  0  0  0  0  0  0  0  0
    7.4596  -11.8522    0.0000 O   0  0  0  0  0  0  0  0  0  0  0  0
    6.0248  -12.6670    0.0000 O   0  0  0  0  0  0  0  0  0  0  0  0
    7.4713  -10.2022    0.0000 O   0  0  0  0  0  0  0  0  0  0  0  0
    3.8902  -11.4143    0.0000 O   0  0  0  0  0  0  0  0  0  0  0  0
    4.5959  -12.6569    0.0000 O   0  0  0  0  0  0  0  0  0  0  0  0
    3.2022   -7.6968    0.0000 C   0  0  0  0  0  0  0  0  0  0  0  0
    2.5578   -8.0689    0.0000 O   0  0  0  0  0  0  0  0  0  0  0  0
    5.3447   -7.3040    0.0000 H   0  0  0  0  0  0  0  0  0  0  0  0
  1  2  2  0  0  0  0
  2  3  1  0  0  0  0
  3  4  2  0  0  0  0
  3  5  1  0  0  0  0
  5  6  1  0  0  0  0
  6  7  2  0  0  0  0
  7  8  1  0  0  0  0
  8  9  1  0  0  0  0
  8 10  2  0  0  0  0
 10 11  1  0  0  0  0
  5 11  2  0  0  0  0
 11 12  1  0  0  0  0
  1 12  1  0  0  0  0
  1 13  1  0  0  0  0
 13 14  1  0  0  0  0
 14 15  2  0  0  0  0
 15 16  1  0  0  0  0
 15 17  1  0  0  0  0
 17 18  1  0  0  0  0
 17 19  2  0  0  0  0
 19 20  1  0  0  0  0
 13 20  2  0  0  0  0
 22 23  1  6  0  0  0
 22 24  1  0  0  0  0
 24 25  1  1  0  0  0
 24 26  1  0  0  0  0
 26 27  1  6  0  0  0
 26 28  1  0  0  0  0
 28 29  1  0  0  0  0
  7 21  1  0  0  0  0
  6 30  1  0  0  0  0
 31 23  1  1  0  0  0
 31 32  1  0  0  0  0
 32 33  1  0  0  0  0
 33 34  1  0  0  0  0
 34 35  1  0  0  0  0
 35 36  1  0  0  0  0
 36 31  1  0  0  0  0
 33 37  1  1  0  0  0
 35 38  1  1  0  0  0
 34 39  1  6  0  0  0
 36 40  1  6  0  0  0
 37 41  2  0  0  0  0
 37 42  1  0  0  0  0
 28 43  1  1  0  0  0
 43 44  1  0  0  0  0
 21 22  1  0  0  0  0
 21 29  1  0  0  0  0
 21 45  1  6  0  0  0
M  END
>  <cdx:fragmentId>
5

$$$$
