983285.cdx
  Mrv1902 05222410182D          

 22 24  0  0  0  0            999 V2000
   10.9248   -8.5853    0.0000 C   0  0  0  0  0  0  0  0  0  0  0  0
   10.2128   -9.0021    0.0000 O   0  0  0  0  0  0  0  0  0  0  0  0
    5.9186   -7.3737    0.0000 C   0  0  0  0  0  0  0  0  0  0  0  0
    6.6331   -7.7862    0.0000 O   0  0  0  0  0  0  0  0  0  0  0  0
    4.4971   -9.0366    0.0000 C   0  0  0  0  0  0  0  0  0  0  0  0
    5.2091   -8.6198    0.0000 O   0  0  0  0  0  0  0  0  0  0  0  0
    5.2191  -10.2697    0.0000 O   0  0  0  0  0  0  0  0  0  0  0  0
   10.2029   -7.3521    0.0000 O   0  0  0  0  0  0  0  0  0  0  0  0
    8.7839   -9.0107    0.0000 C   0  0  0  0  0  0  0  0  0  0  0  0
    8.7889   -9.8357    0.0000 C   0  0  0  0  0  0  0  0  0  0  0  0
    8.0769  -10.2525    0.0000 C   0  0  0  0  0  0  0  0  0  0  0  0
    7.3600   -9.8443    0.0000 C   0  0  0  0  0  0  0  0  0  0  0  0
    6.6480  -10.2611    0.0000 C   0  0  0  0  0  0  0  0  0  0  0  0
    5.9310   -9.8529    0.0000 C   0  0  0  0  0  0  0  0  0  0  0  0
    5.9261   -9.0280    0.0000 C   0  0  0  0  0  0  0  0  0  0  0  0
    6.6380   -8.6112    0.0000 C   0  0  0  0  0  0  0  0  0  0  0  0
    7.3550   -9.0193    0.0000 C   0  0  0  0  0  0  0  0  0  0  0  0
    8.0670   -8.6025    0.0000 C   0  0  0  0  0  0  0  0  0  0  0  0
    8.0620   -7.7776    0.0000 C   0  0  0  0  0  0  0  0  0  0  0  0
    8.7740   -7.3608    0.0000 C   0  0  0  0  0  0  0  0  0  0  0  0
    9.4909   -7.7689    0.0000 C   0  0  0  0  0  0  0  0  0  0  0  0
    9.4959   -8.5939    0.0000 C   0  0  0  0  0  0  0  0  0  0  0  0
 22  2  1  0  0  0  0
  2  1  1  0  0  0  0
 16  4  1  0  0  0  0
  4  3  1  0  0  0  0
 15  6  1  0  0  0  0
  6  5  1  0  0  0  0
 14  7  1  0  0  0  0
 21  8  1  0  0  0  0
 18  9  1  0  0  0  0
 22  9  2  0  0  0  0
 10  9  1  0  0  0  0
 11 10  2  0  0  0  0
 12 11  1  0  0  0  0
 17 12  1  0  0  0  0
 13 12  2  0  0  0  0
 14 13  1  0  0  0  0
 15 14  2  0  0  0  0
 16 15  1  0  0  0  0
 17 16  2  0  0  0  0
 18 17  1  0  0  0  0
 19 18  2  0  0  0  0
 20 19  1  0  0  0  0
 21 20  2  0  0  0  0
 22 21  1  0  0  0  0
M  END
>  <cdx:groupId>
85198

>  <cdx:fragmentId>
85133

$$$$
