98335.cdx
  Mrv1902 05222410202D          

 32 34  0  0  0  0            999 V2000
   10.3905   -8.6080    0.0000 C   0  0  0  0  0  0  0  0  0  0  0  0
    9.6760   -9.0205    0.0000 C   0  0  0  0  0  0  0  0  0  0  0  0
    8.9615   -8.6080    0.0000 C   0  0  0  0  0  0  0  0  0  0  0  0
    8.2471   -9.0205    0.0000 C   0  0  0  0  0  0  0  0  0  0  0  0
    8.2471   -9.8455    0.0000 C   0  0  0  0  0  0  0  0  0  0  0  0
    8.9615  -10.2580    0.0000 C   0  0  0  0  0  0  0  0  0  0  0  0
    9.6760   -9.8455    0.0000 C   0  0  0  0  0  0  0  0  0  0  0  0
   10.3905   -7.7830    0.0000 O   0  0  0  0  0  0  0  0  0  0  0  0
   11.1049   -9.0205    0.0000 O   0  0  0  0  0  0  0  0  0  0  0  0
    7.5326  -10.2580    0.0000 O   0  0  0  0  0  0  0  0  0  0  0  0
    6.8181   -9.8455    0.0000 C   0  0  2  0  0  0  0  0  0  0  0  0
    6.8181   -9.0205    0.0000 O   0  0  0  0  0  0  0  0  0  0  0  0
    6.1036   -8.6080    0.0000 C   0  0  1  0  0  0  0  0  0  0  0  0
    5.3892   -9.0205    0.0000 C   0  0  2  0  0  0  0  0  0  0  0  0
    5.3892   -9.8455    0.0000 C   0  0  1  0  0  0  0  0  0  0  0  0
    6.1036  -10.2580    0.0000 C   0  0  1  0  0  0  0  0  0  0  0  0
    6.1036   -7.7830    0.0000 C   0  0  0  0  0  0  0  0  0  0  0  0
    4.6747  -10.2580    0.0000 O   0  0  0  0  0  0  0  0  0  0  0  0
    4.6747   -8.6080    0.0000 O   0  0  0  0  0  0  0  0  0  0  0  0
    6.1036  -11.0830    0.0000 O   0  0  0  0  0  0  0  0  0  0  0  0
    2.5363   -6.5282    0.0000 O   0  0  0  0  0  0  0  0  0  0  0  0
    2.5463   -4.8783    0.0000 O   0  0  0  0  0  0  0  0  0  0  0  0
    3.9803   -4.0619    0.0000 O   0  0  0  0  0  0  0  0  0  0  0  0
    4.6872   -5.3037    0.0000 C   0  0  0  0  0  0  0  0  0  0  0  0
    3.9753   -4.8869    0.0000 C   0  0  0  0  0  0  0  0  0  0  0  0
    3.2583   -5.2951    0.0000 C   0  0  0  0  0  0  0  0  0  0  0  0
    3.2533   -6.1201    0.0000 C   0  0  0  0  0  0  0  0  0  0  0  0
    3.9653   -6.5369    0.0000 C   0  0  0  0  0  0  0  0  0  0  0  0
    4.6822   -6.1287    0.0000 C   0  0  0  0  0  0  0  0  0  0  0  0
    6.1111   -6.1374    0.0000 O   0  0  0  0  0  0  0  0  0  0  0  0
    5.3942   -6.5456    0.0000 C   0  0  0  0  0  0  0  0  0  0  0  0
    5.3892   -7.3705    0.0000 O   0  0  0  0  0  0  0  0  0  0  0  0
  1  2  1  0  0  0  0
  2  3  1  0  0  0  0
  3  4  2  0  0  0  0
  4  5  1  0  0  0  0
  5  6  2  0  0  0  0
  6  7  1  0  0  0  0
  2  7  2  0  0  0  0
  1  8  2  0  0  0  0
  1  9  1  0  0  0  0
  5 10  1  0  0  0  0
 11 10  1  1  0  0  0
 11 12  1  0  0  0  0
 12 13  1  0  0  0  0
 13 14  1  0  0  0  0
 14 15  1  0  0  0  0
 15 16  1  0  0  0  0
 16 11  1  0  0  0  0
 13 17  1  1  0  0  0
 15 18  1  1  0  0  0
 14 19  1  6  0  0  0
 16 20  1  6  0  0  0
 27 21  1  0  0  0  0
 17 32  1  0  0  0  0
 26 22  1  0  0  0  0
 25 23  1  0  0  0  0
 24 29  1  0  0  0  0
 25 24  2  0  0  0  0
 26 25  1  0  0  0  0
 27 26  2  0  0  0  0
 28 27  1  0  0  0  0
 29 28  2  0  0  0  0
 31 29  1  0  0  0  0
 31 30  2  0  0  0  0
 32 31  1  0  0  0  0
M  END
>  <cdx:fragmentId>
5

$$$$
