98332.cdx
  Mrv1902 05222410182D          

 37 41  0  0  0  0            999 V2000
    8.7213   -7.9691    0.0000 C   0  0  2  0  0  0  0  0  0  0  0  0
    8.7291   -7.1441    0.0000 C   0  0  2  0  0  0  0  0  0  0  0  0
    9.4319   -8.3883    0.0000 C   0  0  0  0  0  0  0  0  0  0  0  0
   10.1502   -7.9825    0.0000 C   0  0  0  0  0  0  0  0  0  0  0  0
   10.1579   -7.1575    0.0000 C   0  0  1  0  0  0  0  0  0  0  0  0
    9.4474   -6.7383    0.0000 C   0  0  1  0  0  0  0  0  0  0  0  0
   10.8762   -6.7517    0.0000 C   0  0  1  0  0  0  0  0  0  0  0  0
   10.8840   -5.9268    0.0000 C   0  0  0  0  0  0  0  0  0  0  0  0
   10.1734   -5.5076    0.0000 C   0  0  0  0  0  0  0  0  0  0  0  0
    9.4551   -5.9134    0.0000 C   0  0  0  0  0  0  0  0  0  0  0  0
    8.8640   -6.1550    0.0000 C   0  0  0  0  0  0  0  0  0  0  0  0
   11.2820   -7.4700    0.0000 C   0  0  0  0  0  0  0  0  0  0  0  0
   11.7012   -6.7595    0.0000 C   0  0  0  0  0  0  0  0  0  0  0  0
   12.1070   -7.4778    0.0000 O   0  0  0  0  0  0  0  0  0  0  0  0
   10.8628   -8.1806    0.0000 O   0  0  0  0  0  0  0  0  0  0  0  0
    8.0889   -6.6237    0.0000 C   0  0  0  0  0  0  0  0  0  0  0  0
    7.2829   -6.7997    0.0000 C   0  0  0  0  0  0  0  0  0  0  0  0
    6.9180   -7.5396    0.0000 C   0  0  1  0  0  0  0  0  0  0  0  0
    7.2690   -8.2863    0.0000 C   0  0  0  0  0  0  0  0  0  0  0  0
    8.0715   -8.4774    0.0000 C   0  0  0  0  0  0  0  0  0  0  0  0
    8.0107   -7.5499    0.0000 C   0  0  0  0  0  0  0  0  0  0  0  0
    6.7485   -8.9264    0.0000 C   0  0  0  0  0  0  0  0  0  0  0  0
    5.9339   -8.7958    0.0000 O   0  0  0  0  0  0  0  0  0  0  0  0
    5.2156   -9.2016    0.0000 C   0  0  2  0  0  0  0  0  0  0  0  0
    4.5051   -8.7824    0.0000 O   0  0  0  0  0  0  0  0  0  0  0  0
    3.7868   -9.1882    0.0000 C   0  0  1  0  0  0  0  0  0  0  0  0
    3.7790  -10.0131    0.0000 C   0  0  2  0  0  0  0  0  0  0  0  0
    4.4896  -10.4323    0.0000 C   0  0  1  0  0  0  0  0  0  0  0  0
    5.2079  -10.0265    0.0000 C   0  0  1  0  0  0  0  0  0  0  0  0
    3.0762   -8.7690    0.0000 C   0  0  0  0  0  0  0  0  0  0  0  0
    4.4818  -11.2573    0.0000 O   0  0  0  0  0  0  0  0  0  0  0  0
    3.0607  -10.4189    0.0000 O   0  0  0  0  0  0  0  0  0  0  0  0
    5.9185  -10.4457    0.0000 O   0  0  0  0  0  0  0  0  0  0  0  0
    2.3579   -9.1748    0.0000 O   0  0  0  0  0  0  0  0  0  0  0  0
    6.0930   -7.5396    0.0000 H   0  0  0  0  0  0  0  0  0  0  0  0
   10.7413   -7.7409    0.0000 H   0  0  0  0  0  0  0  0  0  0  0  0
    8.5155   -6.3472    0.0000 H   0  0  0  0  0  0  0  0  0  0  0  0
  1  2  1  0  0  0  0
  1  3  1  1  0  0  0
  3  4  1  0  0  0  0
  4  5  1  0  0  0  0
  5  6  1  0  0  0  0
  6  2  1  0  0  0  0
  5  7  1  0  0  0  0
  7  8  1  0  0  0  0
  8  9  1  0  0  0  0
  9 10  1  0  0  0  0
 10  6  1  0  0  0  0
  6 11  1  1  0  0  0
  7 12  1  0  0  0  0
  7 13  1  6  0  0  0
 12 14  2  0  0  0  0
 12 15  1  0  0  0  0
  2 16  1  0  0  0  0
 16 17  1  0  0  0  0
 17 18  1  0  0  0  0
 18 19  1  0  0  0  0
 19 20  1  0  0  0  0
 20  1  1  0  0  0  0
  1 21  1  0  0  0  0
 18 21  1  0  0  0  0
 19 22  1  0  0  0  0
 22 23  1  0  0  0  0
 24 23  1  1  0  0  0
 24 25  1  0  0  0  0
 25 26  1  0  0  0  0
 26 27  1  0  0  0  0
 27 28  1  0  0  0  0
 28 29  1  0  0  0  0
 29 24  1  0  0  0  0
 26 30  1  1  0  0  0
 28 31  1  1  0  0  0
 27 32  1  6  0  0  0
 29 33  1  6  0  0  0
 30 34  1  0  0  0  0
 18 35  1  1  0  0  0
  5 36  1  6  0  0  0
  2 37  1  6  0  0  0
M  END
>  <cdx:fragmentId>
5

$$$$
