98334.cdx
  Mrv1902 05222410192D          

 14 14  0  0  0  0            999 V2000
    6.2337   -6.5587    0.0000 C   0  0  0  0  0  0  0  0  0  0  0  0
    6.2337   -7.3838    0.0000 C   0  0  0  0  0  0  0  0  0  0  0  0
    6.9481   -7.7963    0.0000 C   0  0  0  0  0  0  0  0  0  0  0  0
    7.6626   -7.3838    0.0000 C   0  0  0  0  0  0  0  0  0  0  0  0
    7.6626   -6.5587    0.0000 C   0  0  0  0  0  0  0  0  0  0  0  0
    6.9481   -6.1463    0.0000 C   0  0  0  0  0  0  0  0  0  0  0  0
    6.9481   -5.3213    0.0000 C   0  0  0  0  0  0  0  0  0  0  0  0
    6.2337   -4.9088    0.0000 O   0  0  0  0  0  0  0  0  0  0  0  0
    7.6626   -4.9088    0.0000 O   0  0  0  0  0  0  0  0  0  0  0  0
    6.9481   -8.6212    0.0000 C   0  0  0  0  0  0  0  0  0  0  0  0
    7.7731   -8.6212    0.0000 C   0  0  0  0  0  0  0  0  0  0  0  0
    6.1231   -8.6212    0.0000 C   0  0  0  0  0  0  0  0  0  0  0  0
    6.9481   -9.4462    0.0000 O   0  0  0  0  0  0  0  0  0  0  0  0
    8.1856   -9.3357    0.0000 O   0  0  0  0  0  0  0  0  0  0  0  0
  1  2  1  0  0  0  0
  2  3  1  0  0  0  0
  3  4  1  0  0  0  0
  4  5  1  0  0  0  0
  5  6  2  0  0  0  0
  6  1  1  0  0  0  0
  6  7  1  0  0  0  0
  7  8  1  0  0  0  0
  7  9  2  0  0  0  0
  3 10  1  0  0  0  0
 10 11  1  0  0  0  0
 10 12  1  6  0  0  0
 10 13  1  0  0  0  0
 11 14  1  0  0  0  0
M  END
>  <cdx:fragmentId>
5

$$$$
