98336.cdx
  Mrv1902 05222410202D          

 32 35  0  0  0  0            999 V2000
   10.2074   -6.3800    0.0000 C   0  0  0  0  0  0  0  0  0  0  0  0
   10.2074   -7.2050    0.0000 C   0  0  0  0  0  0  0  0  0  0  0  0
   10.9219   -7.6175    0.0000 C   0  0  1  0  0  0  0  0  0  0  0  0
   11.6364   -7.2050    0.0000 C   0  0  1  0  0  0  0  0  0  0  0  0
   11.6364   -6.3800    0.0000 C   0  0  1  0  0  0  0  0  0  0  0  0
   10.9219   -5.9675    0.0000 C   0  0  0  0  0  0  0  0  0  0  0  0
    9.4930   -7.6175    0.0000 C   0  0  0  0  0  0  0  0  0  0  0  0
    8.7785   -7.2050    0.0000 O   0  0  0  0  0  0  0  0  0  0  0  0
    9.4930   -8.4425    0.0000 O   0  0  0  0  0  0  0  0  0  0  0  0
   12.0489   -7.9195    0.0000 C   0  0  0  0  0  0  0  0  0  0  0  0
   10.9219   -6.7925    0.0000 C   0  0  0  0  0  0  0  0  0  0  0  0
   12.4333   -6.9915    0.0000 C   0  0  0  0  0  0  0  0  0  0  0  0
    8.0640   -7.6175    0.0000 C   0  0  2  0  0  0  0  0  0  0  0  0
    7.3495   -7.2050    0.0000 O   0  0  0  0  0  0  0  0  0  0  0  0
    6.6351   -7.6175    0.0000 C   0  0  1  0  0  0  0  0  0  0  0  0
    6.6351   -8.4425    0.0000 C   0  0  2  0  0  0  0  0  0  0  0  0
    7.3495   -8.8550    0.0000 C   0  0  1  0  0  0  0  0  0  0  0  0
    8.0640   -8.4425    0.0000 C   0  0  1  0  0  0  0  0  0  0  0  0
    5.9206   -7.2050    0.0000 C   0  0  0  0  0  0  0  0  0  0  0  0
    7.3495   -9.6800    0.0000 O   0  0  0  0  0  0  0  0  0  0  0  0
    5.9206   -8.8550    0.0000 O   0  0  0  0  0  0  0  0  0  0  0  0
    8.7785   -8.8550    0.0000 O   0  0  0  0  0  0  0  0  0  0  0  0
    5.2061   -7.6175    0.0000 O   0  0  0  0  0  0  0  0  0  0  0  0
    4.4917   -7.2050    0.0000 C   0  0  2  0  0  0  0  0  0  0  0  0
    4.4917   -6.3800    0.0000 O   0  0  0  0  0  0  0  0  0  0  0  0
    3.7772   -5.9675    0.0000 C   0  0  0  0  0  0  0  0  0  0  0  0
    3.0627   -6.3800    0.0000 C   0  0  1  0  0  0  0  0  0  0  0  0
    3.0627   -7.2050    0.0000 C   0  0  1  0  0  0  0  0  0  0  0  0
    3.7772   -7.6175    0.0000 C   0  0  1  0  0  0  0  0  0  0  0  0
    3.7772   -8.4425    0.0000 O   0  0  0  0  0  0  0  0  0  0  0  0
    2.3482   -7.6175    0.0000 O   0  0  0  0  0  0  0  0  0  0  0  0
    2.3482   -5.9675    0.0000 O   0  0  0  0  0  0  0  0  0  0  0  0
  1  2  2  0  0  0  0
  2  3  1  0  0  0  0
  3  4  1  0  0  0  0
  4  5  1  0  0  0  0
  5  6  1  0  0  0  0
  6  1  1  0  0  0  0
  2  7  1  0  0  0  0
  7  8  1  0  0  0  0
  7  9  2  0  0  0  0
  4 10  1  1  0  0  0
  3 11  1  1  0  0  0
  5 11  1  1  0  0  0
  4 12  1  6  0  0  0
 13  8  1  1  0  0  0
 13 14  1  0  0  0  0
 14 15  1  0  0  0  0
 15 16  1  0  0  0  0
 16 17  1  0  0  0  0
 17 18  1  0  0  0  0
 18 13  1  0  0  0  0
 15 19  1  1  0  0  0
 17 20  1  1  0  0  0
 16 21  1  6  0  0  0
 18 22  1  6  0  0  0
 19 23  1  0  0  0  0
 24 23  1  1  0  0  0
 24 25  1  0  0  0  0
 25 26  1  0  0  0  0
 26 27  1  0  0  0  0
 27 28  1  0  0  0  0
 28 29  1  0  0  0  0
 29 24  1  0  0  0  0
 29 30  1  6  0  0  0
 28 31  1  1  0  0  0
 27 32  1  1  0  0  0
M  END
>  <cdx:fragmentId>
5

$$$$
