98344.cdx
  Mrv1902 05222410212D          

 32 35  0  0  0  0            999 V2000
    5.8901   -7.1722    0.0000 O   0  0  0  0  0  0  0  0  0  0  0  0
   12.3204   -8.4097    0.0000 O   0  0  0  0  0  0  0  0  0  0  0  0
   13.0348   -9.6472    0.0000 C   0  0  0  0  0  0  0  0  0  0  0  0
   12.3204  -10.0597    0.0000 O   0  0  0  0  0  0  0  0  0  0  0  0
   10.1770   -9.6472    0.0000 C   0  0  0  0  0  0  0  0  0  0  0  0
   10.8914  -10.0597    0.0000 C   0  0  0  0  0  0  0  0  0  0  0  0
   11.6059   -9.6472    0.0000 C   0  0  0  0  0  0  0  0  0  0  0  0
   11.6059   -8.8222    0.0000 C   0  0  0  0  0  0  0  0  0  0  0  0
   10.8914   -8.4097    0.0000 C   0  0  0  0  0  0  0  0  0  0  0  0
   10.1770   -8.8222    0.0000 C   0  0  0  0  0  0  0  0  0  0  0  0
    8.7480   -9.6472    0.0000 O   0  0  0  0  0  0  0  0  0  0  0  0
    8.7480   -7.1722    0.0000 O   0  0  0  0  0  0  0  0  0  0  0  0
    8.0335   -7.5847    0.0000 C   0  0  0  0  0  0  0  0  0  0  0  0
    7.3191   -7.1722    0.0000 C   0  0  0  0  0  0  0  0  0  0  0  0
    6.6046   -7.5847    0.0000 C   0  0  0  0  0  0  0  0  0  0  0  0
    6.6046   -8.4097    0.0000 C   0  0  0  0  0  0  0  0  0  0  0  0
    7.3191   -8.8222    0.0000 C   0  0  0  0  0  0  0  0  0  0  0  0
    8.0335   -8.4097    0.0000 C   0  0  0  0  0  0  0  0  0  0  0  0
    8.7480   -8.8222    0.0000 C   0  0  0  0  0  0  0  0  0  0  0  0
    9.4625   -8.4097    0.0000 C   0  0  0  0  0  0  0  0  0  0  0  0
    9.4625   -7.5847    0.0000 C   0  0  0  0  0  0  0  0  0  0  0  0
    5.1757   -7.5847    0.0000 C   0  0  2  0  0  0  0  0  0  0  0  0
    4.4612   -7.1722    0.0000 O   0  0  0  0  0  0  0  0  0  0  0  0
    3.7467   -7.5847    0.0000 C   0  0  1  0  0  0  0  0  0  0  0  0
    3.7467   -8.4097    0.0000 C   0  0  1  0  0  0  0  0  0  0  0  0
    4.4612   -8.8222    0.0000 C   0  0  1  0  0  0  0  0  0  0  0  0
    5.1757   -8.4097    0.0000 C   0  0  1  0  0  0  0  0  0  0  0  0
    3.0322   -7.1722    0.0000 C   0  0  0  0  0  0  0  0  0  0  0  0
    3.0322   -8.8222    0.0000 O   0  0  0  0  0  0  0  0  0  0  0  0
    4.4612   -9.6472    0.0000 O   0  0  0  0  0  0  0  0  0  0  0  0
    5.8901   -8.8222    0.0000 O   0  0  0  0  0  0  0  0  0  0  0  0
    2.3178   -7.5847    0.0000 O   0  0  0  0  0  0  0  0  0  0  0  0
 15  1  1  0  0  0  0
 20 10  1  0  0  0  0
  8  2  1  0  0  0  0
  7  4  1  0  0  0  0
  4  3  1  0  0  0  0
 10  5  2  0  0  0  0
  6  5  1  0  0  0  0
  7  6  2  0  0  0  0
  8  7  1  0  0  0  0
  9  8  2  0  0  0  0
 10  9  1  0  0  0  0
 19 11  2  0  0  0  0
 21 12  1  0  0  0  0
 13 12  1  0  0  0  0
 18 13  2  0  0  0  0
 14 13  1  0  0  0  0
 15 14  2  0  0  0  0
 16 15  1  0  0  0  0
 17 16  2  0  0  0  0
 18 17  1  0  0  0  0
 19 18  1  0  0  0  0
 20 19  1  0  0  0  0
 21 20  2  0  0  0  0
 22  1  1  1  0  0  0
 22 23  1  0  0  0  0
 23 24  1  0  0  0  0
 24 25  1  0  0  0  0
 25 26  1  0  0  0  0
 26 27  1  0  0  0  0
 27 22  1  0  0  0  0
 24 28  1  1  0  0  0
 25 29  1  1  0  0  0
 26 30  1  1  0  0  0
 27 31  1  6  0  0  0
 28 32  1  0  0  0  0
M  END
>  <cdx:fragmentId>
5

$$$$
