98340.cdx
  Mrv1902 05222410222D          

153166  0  0  0  0            999 V2000
   13.6697   -7.2355    0.0000 C   0  0  0  0  0  0  0  0  0  0  0  0
   14.3842   -6.8230    0.0000 C   0  0  0  0  0  0  0  0  0  0  0  0
   15.0987   -7.2355    0.0000 C   0  0  2  0  0  0  0  0  0  0  0  0
   15.0987   -8.0605    0.0000 C   0  0  0  0  0  0  0  0  0  0  0  0
   14.3842   -8.4730    0.0000 C   0  0  2  0  0  0  0  0  0  0  0  0
   14.3842   -9.2980    0.0000 C   0  0  1  0  0  0  0  0  0  0  0  0
   13.6697   -9.7105    0.0000 C   0  0  0  0  0  0  0  0  0  0  0  0
   12.9552   -9.2980    0.0000 C   0  0  1  0  0  0  0  0  0  0  0  0
   12.2408   -9.7105    0.0000 C   0  0  2  0  0  0  0  0  0  0  0  0
   12.2408  -10.5355    0.0000 C   0  0  0  0  0  0  0  0  0  0  0  0
   11.5263  -10.9480    0.0000 C   0  0  0  0  0  0  0  0  0  0  0  0
   10.8118  -10.5355    0.0000 C   0  0  1  0  0  0  0  0  0  0  0  0
   10.0974  -10.9480    0.0000 C   0  0  0  0  0  0  0  0  0  0  0  0
    9.3829  -10.5355    0.0000 C   0  0  2  0  0  0  0  0  0  0  0  0
    9.3829   -9.7105    0.0000 C   0  0  0  0  0  0  0  0  0  0  0  0
   10.0974   -9.2980    0.0000 C   0  0  0  0  0  0  0  0  0  0  0  0
   10.8118   -9.7105    0.0000 C   0  0  2  0  0  0  0  0  0  0  0  0
   11.5263   -9.2980    0.0000 C   0  0  1  0  0  0  0  0  0  0  0  0
   11.5263   -8.4730    0.0000 C   0  0  0  0  0  0  0  0  0  0  0  0
   12.2408   -8.0605    0.0000 C   0  0  0  0  0  0  0  0  0  0  0  0
   12.9552   -8.4730    0.0000 C   0  0  0  0  0  0  0  0  0  0  0  0
   13.6697   -8.0605    0.0000 C   0  0  2  0  0  0  0  0  0  0  0  0
   15.0987   -8.8855    0.0000 C   0  0  0  0  0  0  0  0  0  0  0  0
   15.0987   -9.7105    0.0000 O   0  0  0  0  0  0  0  0  0  0  0  0
   15.8131   -8.4730    0.0000 O   0  0  0  0  0  0  0  0  0  0  0  0
   10.5099  -11.6625    0.0000 C   0  0  0  0  0  0  0  0  0  0  0  0
    9.6849  -11.6625    0.0000 C   0  0  0  0  0  0  0  0  0  0  0  0
   13.9717   -6.1085    0.0000 C   0  0  0  0  0  0  0  0  0  0  0  0
   14.7967   -6.1085    0.0000 C   0  0  0  0  0  0  0  0  0  0  0  0
   15.8131   -6.8230    0.0000 O   0  0  0  0  0  0  0  0  0  0  0  0
   16.5276   -7.2355    0.0000 C   0  0  0  0  0  0  0  0  0  0  0  0
   17.2421   -6.8230    0.0000 C   0  0  0  0  0  0  0  0  0  0  0  0
   17.9565   -7.2355    0.0000 C   0  0  0  0  0  0  0  0  0  0  0  0
   18.6710   -6.8230    0.0000 C   0  0  0  0  0  0  0  0  0  0  0  0
   19.3855   -7.2355    0.0000 C   0  0  0  0  0  0  0  0  0  0  0  0
   20.1000   -6.8230    0.0000 C   0  0  1  0  0  0  0  0  0  0  0  0
   20.1000   -5.9980    0.0000 C   0  0  0  0  0  0  0  0  0  0  0  0
   19.3855   -5.5855    0.0000 C   0  0  0  0  0  0  0  0  0  0  0  0
   16.5276   -8.0605    0.0000 O   0  0  0  0  0  0  0  0  0  0  0  0
   20.8144   -7.2355    0.0000 O   0  0  0  0  0  0  0  0  0  0  0  0
   21.5240   -8.4758    0.0000 O   0  0  0  0  0  0  0  0  0  0  0  0
   21.5273   -7.6508    0.0000 C   0  0  2  0  0  0  0  0  0  0  0  0
   22.2434   -7.2412    0.0000 C   0  0  1  0  0  0  0  0  0  0  0  0
   22.9562   -7.6565    0.0000 C   0  0  2  0  0  0  0  0  0  0  0  0
   22.9529   -8.4815    0.0000 C   0  0  1  0  0  0  0  0  0  0  0  0
   22.2368   -8.8912    0.0000 C   0  0  1  0  0  0  0  0  0  0  0  0
   22.2335   -9.7162    0.0000 C   0  0  0  0  0  0  0  0  0  0  0  0
   23.6657   -8.8969    0.0000 O   0  0  0  0  0  0  0  0  0  0  0  0
   23.6723   -7.2469    0.0000 O   0  0  0  0  0  0  0  0  0  0  0  0
   22.2466   -6.4162    0.0000 O   0  0  0  0  0  0  0  0  0  0  0  0
   20.1000   -7.6480    0.0000 C   0  0  0  0  0  0  0  0  0  0  0  0
   17.2421   -5.9980    0.0000 C   0  0  0  0  0  0  0  0  0  0  0  0
    8.6684  -10.9480    0.0000 O   0  0  0  0  0  0  0  0  0  0  0  0
    7.2395  -10.9480    0.0000 O   0  0  0  0  0  0  0  0  0  0  0  0
    7.9540  -10.5355    0.0000 C   0  0  2  0  0  0  0  0  0  0  0  0
    7.9540   -9.7105    0.0000 C   0  0  1  0  0  0  0  0  0  0  0  0
    7.2395   -9.2980    0.0000 C   0  0  2  0  0  0  0  0  0  0  0  0
    6.5250   -9.7105    0.0000 C   0  0  1  0  0  0  0  0  0  0  0  0
    6.5250  -10.5355    0.0000 C   0  0  1  0  0  0  0  0  0  0  0  0
    5.8105   -9.2980    0.0000 O   0  0  0  0  0  0  0  0  0  0  0  0
    7.2395   -8.4730    0.0000 O   0  0  0  0  0  0  0  0  0  0  0  0
    8.6684   -9.2980    0.0000 O   0  0  0  0  0  0  0  0  0  0  0  0
    5.8105  -10.9480    0.0000 C   0  0  0  0  0  0  0  0  0  0  0  0
    5.0961  -10.5355    0.0000 O   0  0  0  0  0  0  0  0  0  0  0  0
    3.6671  -10.5355    0.0000 O   0  0  0  0  0  0  0  0  0  0  0  0
    4.3816  -10.9480    0.0000 C   0  0  2  0  0  0  0  0  0  0  0  0
    4.3816  -11.7730    0.0000 C   0  0  1  0  0  0  0  0  0  0  0  0
    3.6671  -12.1855    0.0000 C   0  0  2  0  0  0  0  0  0  0  0  0
    2.9527  -11.7730    0.0000 C   0  0  2  0  0  0  0  0  0  0  0  0
    2.9527  -10.9480    0.0000 C   0  0  1  0  0  0  0  0  0  0  0  0
    5.0961  -12.1855    0.0000 O   0  0  0  0  0  0  0  0  0  0  0  0
    4.3816  -13.4230    0.0000 O   0  0  0  0  0  0  0  0  0  0  0  0
    5.0961  -13.0105    0.0000 C   0  0  2  0  0  0  0  0  0  0  0  0
    5.8105  -13.4230    0.0000 C   0  0  1  0  0  0  0  0  0  0  0  0
    5.8105  -14.2480    0.0000 C   0  0  2  0  0  0  0  0  0  0  0  0
    5.0961  -14.6605    0.0000 C   0  0  1  0  0  0  0  0  0  0  0  0
    4.3816  -14.2480    0.0000 C   0  0  0  0  0  0  0  0  0  0  0  0
    5.0961  -15.4855    0.0000 O   0  0  0  0  0  0  0  0  0  0  0  0
    6.5250  -14.6605    0.0000 O   0  0  0  0  0  0  0  0  0  0  0  0
    6.5250  -13.0105    0.0000 O   0  0  0  0  0  0  0  0  0  0  0  0
    2.2382  -12.1855    0.0000 O   0  0  0  0  0  0  0  0  0  0  0  0
    3.6671  -13.0105    0.0000 O   0  0  0  0  0  0  0  0  0  0  0  0
   10.8118  -11.3605    0.0000 H   0  0  0  0  0  0  0  0  0  0  0  0
   13.6697   -8.8855    0.0000 H   0  0  0  0  0  0  0  0  0  0  0  0
   17.2421   -8.4730    0.0000 O   0  0  0  0  0  0  0  0  0  0  0  0
   16.5276   -8.8855    0.0000 C   0  0  2  0  0  0  0  0  0  0  0  0
   16.5276   -9.7105    0.0000 C   0  0  1  0  0  0  0  0  0  0  0  0
   17.2421  -10.1230    0.0000 C   0  0  2  0  0  0  0  0  0  0  0  0
   17.9565   -9.7105    0.0000 C   0  0  1  0  0  0  0  0  0  0  0  0
   17.9565   -8.8855    0.0000 C   0  0  1  0  0  0  0  0  0  0  0  0
   18.6710   -8.4730    0.0000 C   0  0  0  0  0  0  0  0  0  0  0  0
   19.3855   -8.8855    0.0000 O   0  0  0  0  0  0  0  0  0  0  0  0
   18.6710  -10.1230    0.0000 O   0  0  0  0  0  0  0  0  0  0  0  0
   17.2421  -10.9480    0.0000 O   0  0  0  0  0  0  0  0  0  0  0  0
   14.6088  -10.8903    0.0000 O   0  0  0  0  0  0  0  0  0  0  0  0
   15.4333  -10.8608    0.0000 C   0  0  2  0  0  0  0  0  0  0  0  0
   15.8710  -11.5601    0.0000 C   0  0  1  0  0  0  0  0  0  0  0  0
   15.4842  -12.2889    0.0000 C   0  0  1  0  0  0  0  0  0  0  0  0
   14.6598  -12.3183    0.0000 C   0  0  2  0  0  0  0  0  0  0  0  0
   14.2221  -11.6190    0.0000 C   0  0  2  0  0  0  0  0  0  0  0  0
   15.9418  -13.0534    0.0000 O   0  0  0  0  0  0  0  0  0  0  0  0
   15.2750  -14.3172    0.0000 O   0  0  0  0  0  0  0  0  0  0  0  0
   15.9733  -13.8778    0.0000 C   0  0  2  0  0  0  0  0  0  0  0  0
   16.7029  -14.2628    0.0000 C   0  0  1  0  0  0  0  0  0  0  0  0
   16.7344  -15.0872    0.0000 C   0  0  2  0  0  0  0  0  0  0  0  0
   16.0362  -15.5266    0.0000 C   0  0  1  0  0  0  0  0  0  0  0  0
   15.3065  -15.1416    0.0000 C   0  0  1  0  0  0  0  0  0  0  0  0
   14.6083  -15.5811    0.0000 C   0  0  0  0  0  0  0  0  0  0  0  0
   14.6397  -16.4055    0.0000 O   0  0  0  0  0  0  0  0  0  0  0  0
   16.0676  -16.3510    0.0000 O   0  0  0  0  0  0  0  0  0  0  0  0
   17.4641  -15.4721    0.0000 O   0  0  0  0  0  0  0  0  0  0  0  0
   17.4012  -13.8233    0.0000 O   0  0  0  0  0  0  0  0  0  0  0  0
   13.3976  -11.6484    0.0000 C   0  0  0  0  0  0  0  0  0  0  0  0
   16.6955  -11.5307    0.0000 O   0  0  0  0  0  0  0  0  0  0  0  0
   14.2600  -13.0712    0.0000 O   0  0  0  0  0  0  0  0  0  0  0  0
   12.8083  -12.8390    0.0000 O   0  0  0  0  0  0  0  0  0  0  0  0
   13.4750  -13.3250    0.0000 C   0  0  2  0  0  0  0  0  0  0  0  0
   13.2188  -14.1092    0.0000 C   0  0  1  0  0  0  0  0  0  0  0  0
   12.3938  -14.1079    0.0000 C   0  0  2  0  0  0  0  0  0  0  0  0
   12.1401  -13.3229    0.0000 C   0  0  2  0  0  0  0  0  0  0  0  0
   11.3558  -13.0668    0.0000 C   0  0  0  0  0  0  0  0  0  0  0  0
   10.7419  -13.6178    0.0000 O   0  0  0  0  0  0  0  0  0  0  0  0
   11.9079  -14.7746    0.0000 O   0  0  0  0  0  0  0  0  0  0  0  0
   13.7027  -14.7774    0.0000 O   0  0  0  0  0  0  0  0  0  0  0  0
   10.8118   -8.8855    0.0000 C   0  0  0  0  0  0  0  0  0  0  0  0
   12.2408   -8.8855    0.0000 C   0  0  0  0  0  0  0  0  0  0  0  0
   12.9552  -10.1230    0.0000 C   0  0  0  0  0  0  0  0  0  0  0  0
   11.5263  -10.1230    0.0000 H   0  0  0  0  0  0  0  0  0  0  0  0
   15.8200  -10.1321    0.0000 O   0  0  0  0  0  0  0  0  0  0  0  0
   14.3842  -10.1230    0.0000 O   0  0  0  0  0  0  0  0  0  0  0  0
   23.6624   -9.7219    0.0000 C   0  0  0  0  0  0  0  0  0  0  0  0
   22.9463  -10.1315    0.0000 O   0  0  0  0  0  0  0  0  0  0  0  0
   24.3753  -10.1372    0.0000 C   0  0  0  0  0  0  0  0  0  0  0  0
   24.3720  -10.9622    0.0000 C   0  0  0  0  0  0  0  0  0  0  0  0
   25.0897   -9.7247    0.0000 C   0  0  0  0  0  0  0  0  0  0  0  0
   23.6559  -11.3718    0.0000 C   0  0  0  0  0  0  0  0  0  0  0  0
   25.0848  -11.3775    0.0000 C   0  0  0  0  0  0  0  0  0  0  0  0
   25.0815  -12.2025    0.0000 C   0  0  0  0  0  0  0  0  0  0  0  0
   24.3654  -12.6122    0.0000 C   0  0  2  0  0  0  0  0  0  0  0  0
   23.6526  -12.1968    0.0000 C   0  0  0  0  0  0  0  0  0  0  0  0
   23.9529  -13.3267    0.0000 O   0  0  0  0  0  0  0  0  0  0  0  0
   24.7779  -13.3267    0.0000 C   0  0  0  0  0  0  0  0  0  0  0  0
   23.2442  -13.7490    0.0000 C   0  0  2  0  0  0  0  0  0  0  0  0
   22.5241  -13.3464    0.0000 O   0  0  0  0  0  0  0  0  0  0  0  0
   21.8154  -13.7687    0.0000 C   0  0  1  0  0  0  0  0  0  0  0  0
   21.8268  -14.5937    0.0000 C   0  0  2  0  0  0  0  0  0  0  0  0
   22.5469  -14.9962    0.0000 C   0  0  1  0  0  0  0  0  0  0  0  0
   23.2556  -14.5739    0.0000 C   0  0  1  0  0  0  0  0  0  0  0  0
   22.5583  -15.8212    0.0000 O   0  0  0  0  0  0  0  0  0  0  0  0
   21.0953  -13.3662    0.0000 C   0  0  0  0  0  0  0  0  0  0  0  0
   21.1181  -15.0160    0.0000 O   0  0  0  0  0  0  0  0  0  0  0  0
   23.9757  -14.9765    0.0000 O   0  0  0  0  0  0  0  0  0  0  0  0
    2.2382  -10.5355    0.0000 C   0  0  0  0  0  0  0  0  0  0  0  0
  1  2  1  0  0  0  0
  2  3  1  0  0  0  0
  3  4  1  0  0  0  0
  4  5  1  0  0  0  0
  5  6  1  0  0  0  0
  6  7  1  0  0  0  0
  7  8  1  0  0  0  0
  8  9  1  0  0  0  0
  9 10  1  0  0  0  0
 10 11  1  0  0  0  0
 11 12  1  0  0  0  0
 12 13  1  0  0  0  0
 13 14  1  0  0  0  0
 14 15  1  0  0  0  0
 15 16  1  0  0  0  0
 16 17  1  0  0  0  0
 12 17  1  0  0  0  0
 17 18  1  0  0  0  0
  9 18  1  0  0  0  0
 18 19  1  0  0  0  0
 19 20  1  0  0  0  0
 20 21  2  0  0  0  0
  8 21  1  0  0  0  0
 21 22  1  0  0  0  0
  5 22  1  0  0  0  0
  1 22  1  0  0  0  0
 23 24  2  0  0  0  0
 23 25  1  0  0  0  0
  5 23  1  1  0  0  0
 13 26  1  0  0  0  0
 13 27  1  0  0  0  0
  2 28  1  0  0  0  0
  2 29  1  0  0  0  0
 31 32  1  0  0  0  0
 32 33  2  0  0  0  0
 33 34  1  0  0  0  0
 34 35  1  0  0  0  0
 35 36  1  0  0  0  0
 36 37  1  0  0  0  0
 37 38  2  0  0  0  0
 31 39  2  0  0  0  0
 41 42  1  0  0  0  0
 42 43  1  0  0  0  0
 43 44  1  0  0  0  0
 44 45  1  0  0  0  0
 45 46  1  0  0  0  0
 41 46  1  0  0  0  0
 46 47  1  1  0  0  0
 45 48  1  6  0  0  0
 44 49  1  1  0  0  0
 43 50  1  6  0  0  0
 42 40  1  1  0  0  0
 36 40  1  0  0  0  0
 36 51  1  6  0  0  0
 32 52  1  0  0  0  0
 30 31  1  0  0  0  0
  3 30  1  1  0  0  0
 54 55  1  0  0  0  0
 55 56  1  0  0  0  0
 56 57  1  0  0  0  0
 57 58  1  0  0  0  0
 58 59  1  0  0  0  0
 54 59  1  0  0  0  0
 58 60  1  1  0  0  0
 57 61  1  6  0  0  0
 56 62  1  1  0  0  0
 65 66  1  0  0  0  0
 66 67  1  0  0  0  0
 67 68  1  0  0  0  0
 68 69  1  0  0  0  0
 69 70  1  0  0  0  0
 65 70  1  0  0  0  0
 72 73  1  0  0  0  0
 73 74  1  0  0  0  0
 74 75  1  0  0  0  0
 75 76  1  0  0  0  0
 76 77  1  0  0  0  0
 72 77  1  0  0  0  0
 76 78  1  6  0  0  0
 75 79  1  1  0  0  0
 74 80  1  6  0  0  0
 73 71  1  1  0  0  0
 67 71  1  6  0  0  0
 69 81  1  1  0  0  0
 68 82  1  1  0  0  0
 66 64  1  1  0  0  0
 63 64  1  0  0  0  0
 59 63  1  6  0  0  0
 55 53  1  6  0  0  0
 14 53  1  1  0  0  0
 12 83  1  6  0  0  0
 22 84  1  1  0  0  0
 85 86  1  0  0  0  0
 86 87  1  0  0  0  0
 87 88  1  0  0  0  0
 88 89  1  0  0  0  0
 89 90  1  0  0  0  0
 85 90  1  0  0  0  0
 91 92  1  0  0  0  0
 90 91  1  6  0  0  0
 89 93  1  1  0  0  0
 88 94  1  6  0  0  0
 95 96  1  0  0  0  0
 96 97  1  0  0  0  0
 97 98  1  0  0  0  0
 98 99  1  0  0  0  0
 99100  1  0  0  0  0
 95100  1  0  0  0  0
102103  1  0  0  0  0
103104  1  0  0  0  0
104105  1  0  0  0  0
105106  1  0  0  0  0
106107  1  0  0  0  0
102107  1  0  0  0  0
108109  1  0  0  0  0
107108  1  1  0  0  0
106110  1  6  0  0  0
105111  1  1  0  0  0
104112  1  6  0  0  0
103101  1  1  0  0  0
 98101  1  6  0  0  0
100113  1  6  0  0  0
 97114  1  6  0  0  0
116117  1  0  0  0  0
117118  1  0  0  0  0
118119  1  0  0  0  0
119120  1  0  0  0  0
116120  1  0  0  0  0
121122  1  0  0  0  0
120121  1  6  0  0  0
119123  1  1  0  0  0
118124  1  6  0  0  0
117115  1  1  0  0  0
 99115  1  1  0  0  0
 86 25  1  6  0  0  0
 17125  1  1  0  0  0
  9126  1  1  0  0  0
  8127  1  6  0  0  0
 18128  1  6  0  0  0
 96129  1  1  0  0  0
 87129  1  1  0  0  0
  6130  1  6  0  0  0
 48131  1  0  0  0  0
131132  2  0  0  0  0
131133  1  0  0  0  0
133134  2  0  0  0  0
133135  1  0  0  0  0
134137  1  0  0  0  0
137138  1  0  0  0  0
138139  1  0  0  0  0
139140  1  0  0  0  0
140136  2  0  0  0  0
139141  1  0  0  0  0
139142  1  6  0  0  0
143141  1  1  0  0  0
143144  1  0  0  0  0
144145  1  0  0  0  0
145146  1  0  0  0  0
146147  1  0  0  0  0
147148  1  0  0  0  0
148143  1  0  0  0  0
147149  1  1  0  0  0
145150  1  1  0  0  0
146151  1  6  0  0  0
148152  1  6  0  0  0
 70153  1  1  0  0  0
M  END
>  <cdx:fragmentId>
166833

$$$$
