98356.cdx
  Mrv1902 05222410222D          

 83 91  0  0  0  0            999 V2000
    9.6097   -9.2171    0.0000 C   0  0  0  0  0  0  0  0  0  0  0  0
    9.6097   -9.8771    0.0000 C   0  0  1  0  0  0  0  0  0  0  0  0
   10.1812  -10.2071    0.0000 C   0  0  0  0  0  0  0  0  0  0  0  0
   10.7528   -9.8771    0.0000 C   0  0  1  0  0  0  0  0  0  0  0  0
   10.7528   -9.2171    0.0000 C   0  0  2  0  0  0  0  0  0  0  0  0
   10.1812   -8.8871    0.0000 C   0  0  0  0  0  0  0  0  0  0  0  0
   11.3244  -10.2071    0.0000 C   0  0  0  0  0  0  0  0  0  0  0  0
   11.8960   -9.8771    0.0000 C   0  0  0  0  0  0  0  0  0  0  0  0
   11.8960   -9.2171    0.0000 C   0  0  2  0  0  0  0  0  0  0  0  0
   11.3244   -8.8871    0.0000 C   0  0  2  0  0  0  0  0  0  0  0  0
   12.4675   -8.8871    0.0000 C   0  0  2  0  0  0  0  0  0  0  0  0
   12.4675   -8.2271    0.0000 C   0  0  2  0  0  0  0  0  0  0  0  0
   11.8960   -7.8971    0.0000 C   0  0  1  0  0  0  0  0  0  0  0  0
   11.3244   -8.2271    0.0000 C   0  0  1  0  0  0  0  0  0  0  0  0
   13.0952   -9.0911    0.0000 C   0  0  0  0  0  0  0  0  0  0  0  0
   13.4832   -8.5571    0.0000 C   0  0  0  0  0  0  0  0  0  0  0  0
   13.0952   -8.0232    0.0000 C   0  0  1  0  0  0  0  0  0  0  0  0
    9.0381  -10.2071    0.0000 O   0  0  0  0  0  0  0  0  0  0  0  0
   10.7528   -8.5571    0.0000 C   0  0  0  0  0  0  0  0  0  0  0  0
   12.4675   -9.5471    0.0000 O   0  0  0  0  0  0  0  0  0  0  0  0
   12.5365   -7.5707    0.0000 C   0  0  0  0  0  0  0  0  0  0  0  0
   11.8960   -7.2371    0.0000 O   0  0  0  0  0  0  0  0  0  0  0  0
   10.7528  -10.5371    0.0000 H   0  0  0  0  0  0  0  0  0  0  0  0
   11.3244   -9.5471    0.0000 H   0  0  0  0  0  0  0  0  0  0  0  0
   10.7528   -7.8971    0.0000 O   0  0  0  0  0  0  0  0  0  0  0  0
   13.2992   -7.3955    0.0000 C   0  0  0  0  0  0  0  0  0  0  0  0
   12.8576   -6.9050    0.0000 C   0  0  0  0  0  0  0  0  0  0  0  0
   13.9448   -7.2583    0.0000 O   0  0  0  0  0  0  0  0  0  0  0  0
   10.7528   -7.2371    0.0000 C   0  0  0  0  0  0  0  0  0  0  0  0
   10.1812   -6.9071    0.0000 C   0  0  0  0  0  0  0  0  0  0  0  0
   11.3244   -6.9071    0.0000 O   0  0  0  0  0  0  0  0  0  0  0  0
   10.1812   -6.2471    0.0000 C   0  0  0  0  0  0  0  0  0  0  0  0
    9.0381   -6.9071    0.0000 C   0  0  0  0  0  0  0  0  0  0  0  0
    9.6097   -7.2371    0.0000 C   0  0  0  0  0  0  0  0  0  0  0  0
    7.8972   -8.8816    0.0000 C   0  0  2  0  0  0  0  0  0  0  0  0
    7.3254   -9.2112    0.0000 C   0  0  2  0  0  0  0  0  0  0  0  0
    7.3250   -9.8712    0.0000 C   0  0  1  0  0  0  0  0  0  0  0  0
    7.8964  -10.2016    0.0000 C   0  0  0  0  0  0  0  0  0  0  0  0
    8.4681   -9.8720    0.0000 C   0  0  1  0  0  0  0  0  0  0  0  0
    8.4686   -9.2120    0.0000 O   0  0  0  0  0  0  0  0  0  0  0  0
    7.8976   -8.2216    0.0000 C   0  0  0  0  0  0  0  0  0  0  0  0
    6.7541   -8.8809    0.0000 O   0  0  0  0  0  0  0  0  0  0  0  0
    6.7532  -10.2009    0.0000 O   0  0  0  0  0  0  0  0  0  0  0  0
    6.7528  -10.8609    0.0000 C   0  0  0  0  0  0  0  0  0  0  0  0
    6.1827   -8.5505    0.0000 C   0  0  2  0  0  0  0  0  0  0  0  0
    6.1831   -7.8905    0.0000 O   0  0  0  0  0  0  0  0  0  0  0  0
    5.6118   -7.5601    0.0000 C   0  0  1  0  0  0  0  0  0  0  0  0
    5.0400   -7.8898    0.0000 C   0  0  2  0  0  0  0  0  0  0  0  0
    5.0395   -8.5498    0.0000 C   0  0  2  0  0  0  0  0  0  0  0  0
    5.6109   -8.8801    0.0000 C   0  0  1  0  0  0  0  0  0  0  0  0
    5.6122   -6.9001    0.0000 C   0  0  0  0  0  0  0  0  0  0  0  0
    4.4686   -7.5594    0.0000 O   0  0  0  0  0  0  0  0  0  0  0  0
    4.4678   -8.8794    0.0000 O   0  0  0  0  0  0  0  0  0  0  0  0
    5.6105   -9.5401    0.0000 O   0  0  0  0  0  0  0  0  0  0  0  0
    4.4673   -9.5394    0.0000 C   0  0  0  0  0  0  0  0  0  0  0  0
   12.2260   -6.6655    0.0000 C   0  0  0  0  0  0  0  0  0  0  0  0
   12.8860   -6.6655    0.0000 O   0  0  0  0  0  0  0  0  0  0  0  0
   11.8685   -6.1749    0.0000 C   0  0  0  0  0  0  0  0  0  0  0  0
    2.8397   -6.9568    0.0000 C   0  0  2  0  0  0  0  0  0  0  0  0
    2.4985   -7.5218    0.0000 C   0  0  2  0  0  0  0  0  0  0  0  0
    2.8172   -8.0998    0.0000 C   0  0  1  0  0  0  0  0  0  0  0  0
    3.4770   -8.1128    0.0000 C   0  0  2  0  0  0  0  0  0  0  0  0
    3.8182   -7.5478    0.0000 C   0  0  1  0  0  0  0  0  0  0  0  0
    3.4995   -6.9698    0.0000 O   0  0  0  0  0  0  0  0  0  0  0  0
    2.5210   -6.3789    0.0000 C   0  0  0  0  0  0  0  0  0  0  0  0
    2.4760   -8.6647    0.0000 O   0  0  0  0  0  0  0  0  0  0  0  0
    1.8386   -7.5088    0.0000 O   0  0  0  0  0  0  0  0  0  0  0  0
    3.7957   -8.6907    0.0000 O   0  0  0  0  0  0  0  0  0  0  0  0
    2.8622   -5.8139    0.0000 O   0  0  0  0  0  0  0  0  0  0  0  0
   12.1985   -5.6033    0.0000 C   0  0  0  0  0  0  0  0  0  0  0  0
   11.2085   -6.1749    0.0000 C   0  0  0  0  0  0  0  0  0  0  0  0
   10.8785   -5.6033    0.0000 C   0  0  0  0  0  0  0  0  0  0  0  0
    1.8911  -10.2950    0.0000 C   0  0  2  0  0  0  0  0  0  0  0  0
    2.4581  -10.6330    0.0000 C   0  0  2  0  0  0  0  0  0  0  0  0
    3.0342  -10.3110    0.0000 C   0  0  1  0  0  0  0  0  0  0  0  0
    3.0434   -9.6510    0.0000 C   0  0  2  0  0  0  0  0  0  0  0  0
    2.4765   -9.3131    0.0000 C   0  0  1  0  0  0  0  0  0  0  0  0
    1.9003   -9.6351    0.0000 O   0  0  0  0  0  0  0  0  0  0  0  0
    1.3150  -10.6170    0.0000 C   0  0  0  0  0  0  0  0  0  0  0  0
    3.6011  -10.6489    0.0000 O   0  0  0  0  0  0  0  0  0  0  0  0
    2.4489  -11.2929    0.0000 O   0  0  0  0  0  0  0  0  0  0  0  0
    3.6195   -9.3290    0.0000 O   0  0  0  0  0  0  0  0  0  0  0  0
    0.7481  -10.2791    0.0000 O   0  0  0  0  0  0  0  0  0  0  0  0
  1  2  1  0  0  0  0
  2  3  1  0  0  0  0
  3  4  1  0  0  0  0
  4  5  1  0  0  0  0
  5  6  1  0  0  0  0
  6  1  1  0  0  0  0
  4  7  1  0  0  0  0
  7  8  1  0  0  0  0
  8  9  1  0  0  0  0
  9 10  1  0  0  0  0
 10  5  1  0  0  0  0
  9 11  1  0  0  0  0
 11 12  1  0  0  0  0
 12 13  1  0  0  0  0
 13 14  1  0  0  0  0
 14 10  1  0  0  0  0
 11 15  1  0  0  0  0
 15 16  1  0  0  0  0
 16 17  1  0  0  0  0
 17 12  1  0  0  0  0
  2 18  1  1  0  0  0
  5 19  1  1  0  0  0
  9 20  1  1  0  0  0
 11 20  1  1  0  0  0
 12 21  1  1  0  0  0
 13 22  1  1  0  0  0
  4 23  1  6  0  0  0
 10 24  1  6  0  0  0
 14 25  1  6  0  0  0
 17 26  1  6  0  0  0
 26 27  1  0  0  0  0
 26 28  2  0  0  0  0
 25 29  1  0  0  0  0
 29 30  1  0  0  0  0
 29 31  2  0  0  0  0
 30 32  1  0  0  0  0
 33 34  1  0  0  0  0
 34 30  1  0  0  0  0
 35 36  1  0  0  0  0
 36 37  1  0  0  0  0
 37 38  1  0  0  0  0
 38 39  1  0  0  0  0
 40 35  1  0  0  0  0
 35 41  1  1  0  0  0
 36 42  1  6  0  0  0
 37 43  1  1  0  0  0
 43 44  1  0  0  0  0
 45 42  1  1  0  0  0
 45 46  1  0  0  0  0
 46 47  1  0  0  0  0
 47 48  1  0  0  0  0
 48 49  1  0  0  0  0
 49 50  1  0  0  0  0
 50 45  1  0  0  0  0
 47 51  1  1  0  0  0
 48 52  1  6  0  0  0
 49 53  1  6  0  0  0
 50 54  1  6  0  0  0
 53 55  1  0  0  0  0
 39 18  1  1  0  0  0
 22 56  1  0  0  0  0
 56 57  2  0  0  0  0
 56 58  1  0  0  0  0
 59 60  1  0  0  0  0
 60 61  1  0  0  0  0
 61 62  1  0  0  0  0
 62 63  1  0  0  0  0
 63 64  1  0  0  0  0
 64 59  1  0  0  0  0
 59 65  1  1  0  0  0
 61 66  1  1  0  0  0
 60 67  1  6  0  0  0
 62 68  1  6  0  0  0
 65 69  1  0  0  0  0
 63 52  1  1  0  0  0
 58 70  1  0  0  0  0
 58 71  2  0  0  0  0
 71 72  1  0  0  0  0
 73 74  1  0  0  0  0
 74 75  1  0  0  0  0
 75 76  1  0  0  0  0
 76 77  1  0  0  0  0
 77 78  1  0  0  0  0
 78 73  1  0  0  0  0
 73 79  1  1  0  0  0
 75 80  1  1  0  0  0
 74 81  1  6  0  0  0
 76 82  1  6  0  0  0
 79 83  1  0  0  0  0
 77 66  1  1  0  0  0
 39 40  1  0  0  0  0
M  END
>  <cdx:fragmentId>
5

$$$$
