98351.cdx
  Mrv1902 05222410202D          

 63 70  0  0  0  0            999 V2000
    8.2412   -8.7725    0.0000 C   0  0  0  0  0  0  0  0  0  0  0  0
    8.2412   -9.5975    0.0000 C   0  0  1  0  0  0  0  0  0  0  0  0
    8.9556  -10.0100    0.0000 C   0  0  0  0  0  0  0  0  0  0  0  0
    9.6701   -9.5975    0.0000 C   0  0  1  0  0  0  0  0  0  0  0  0
    9.6701   -8.7725    0.0000 C   0  0  2  0  0  0  0  0  0  0  0  0
    8.9556   -8.3600    0.0000 C   0  0  0  0  0  0  0  0  0  0  0  0
   10.3846  -10.0100    0.0000 C   0  0  0  0  0  0  0  0  0  0  0  0
   11.0991   -9.5975    0.0000 C   0  0  0  0  0  0  0  0  0  0  0  0
   11.0991   -8.7725    0.0000 C   0  0  2  0  0  0  0  0  0  0  0  0
   10.3846   -8.3600    0.0000 C   0  0  2  0  0  0  0  0  0  0  0  0
   11.8135   -8.3600    0.0000 C   0  0  2  0  0  0  0  0  0  0  0  0
   11.8135   -7.5350    0.0000 C   0  0  2  0  0  0  0  0  0  0  0  0
   11.0991   -7.1225    0.0000 C   0  0  1  0  0  0  0  0  0  0  0  0
   10.3846   -7.5350    0.0000 C   0  0  1  0  0  0  0  0  0  0  0  0
   12.5982   -8.6149    0.0000 C   0  0  0  0  0  0  0  0  0  0  0  0
   13.0831   -7.9475    0.0000 C   0  0  0  0  0  0  0  0  0  0  0  0
   12.5982   -7.2801    0.0000 C   0  0  1  0  0  0  0  0  0  0  0  0
    7.5267  -10.0100    0.0000 O   0  0  0  0  0  0  0  0  0  0  0  0
    9.6701   -7.9475    0.0000 C   0  0  0  0  0  0  0  0  0  0  0  0
   11.8135   -9.1850    0.0000 O   0  0  0  0  0  0  0  0  0  0  0  0
   11.8998   -6.7145    0.0000 C   0  0  0  0  0  0  0  0  0  0  0  0
   11.0991   -6.2975    0.0000 O   0  0  0  0  0  0  0  0  0  0  0  0
    9.6701  -10.4225    0.0000 H   0  0  0  0  0  0  0  0  0  0  0  0
   10.3846   -9.1850    0.0000 H   0  0  0  0  0  0  0  0  0  0  0  0
    9.6701   -7.1225    0.0000 O   0  0  0  0  0  0  0  0  0  0  0  0
   12.8531   -6.4954    0.0000 C   0  0  0  0  0  0  0  0  0  0  0  0
   12.3011   -5.8823    0.0000 C   0  0  0  0  0  0  0  0  0  0  0  0
   13.6601   -6.3239    0.0000 O   0  0  0  0  0  0  0  0  0  0  0  0
    9.6701   -6.2975    0.0000 C   0  0  0  0  0  0  0  0  0  0  0  0
    8.9556   -5.8850    0.0000 C   0  0  0  0  0  0  0  0  0  0  0  0
   10.3846   -5.8850    0.0000 O   0  0  0  0  0  0  0  0  0  0  0  0
    8.9556   -5.0600    0.0000 C   0  0  0  0  0  0  0  0  0  0  0  0
    8.2412   -4.6475    0.0000 C   0  0  0  0  0  0  0  0  0  0  0  0
    7.5267   -5.0600    0.0000 C   0  0  0  0  0  0  0  0  0  0  0  0
    7.5267   -5.8850    0.0000 C   0  0  0  0  0  0  0  0  0  0  0  0
    8.2412   -6.2975    0.0000 C   0  0  0  0  0  0  0  0  0  0  0  0
   11.5116   -5.5830    0.0000 C   0  0  0  0  0  0  0  0  0  0  0  0
   12.3366   -5.5830    0.0000 O   0  0  0  0  0  0  0  0  0  0  0  0
   11.0991   -4.8686    0.0000 C   0  0  0  0  0  0  0  0  0  0  0  0
   10.2741   -4.8686    0.0000 C   0  0  0  0  0  0  0  0  0  0  0  0
   11.5116   -4.1541    0.0000 C   0  0  0  0  0  0  0  0  0  0  0  0
    9.8616   -4.1541    0.0000 C   0  0  0  0  0  0  0  0  0  0  0  0
    6.1006   -8.3531    0.0000 C   0  0  2  0  0  0  0  0  0  0  0  0
    5.3859   -8.7651    0.0000 C   0  0  2  0  0  0  0  0  0  0  0  0
    5.3853   -9.5901    0.0000 C   0  0  1  0  0  0  0  0  0  0  0  0
    6.0995  -10.0031    0.0000 C   0  0  0  0  0  0  0  0  0  0  0  0
    6.8143   -9.5911    0.0000 C   0  0  1  0  0  0  0  0  0  0  0  0
    6.8148   -8.7661    0.0000 O   0  0  0  0  0  0  0  0  0  0  0  0
    6.1012   -7.5281    0.0000 C   0  0  0  0  0  0  0  0  0  0  0  0
    4.6717   -8.3522    0.0000 O   0  0  0  0  0  0  0  0  0  0  0  0
    4.6706  -10.0022    0.0000 O   0  0  0  0  0  0  0  0  0  0  0  0
    4.6701  -10.8272    0.0000 C   0  0  0  0  0  0  0  0  0  0  0  0
    3.9575   -7.9392    0.0000 C   0  0  2  0  0  0  0  0  0  0  0  0
    3.9580   -7.1142    0.0000 O   0  0  0  0  0  0  0  0  0  0  0  0
    3.2438   -6.7012    0.0000 C   0  0  1  0  0  0  0  0  0  0  0  0
    2.5291   -7.1133    0.0000 C   0  0  2  0  0  0  0  0  0  0  0  0
    2.5285   -7.9383    0.0000 C   0  0  2  0  0  0  0  0  0  0  0  0
    3.2427   -8.3512    0.0000 C   0  0  1  0  0  0  0  0  0  0  0  0
    3.2443   -5.8762    0.0000 C   0  0  0  0  0  0  0  0  0  0  0  0
    1.8149   -6.7003    0.0000 O   0  0  0  0  0  0  0  0  0  0  0  0
    1.8138   -8.3503    0.0000 O   0  0  0  0  0  0  0  0  0  0  0  0
    3.2422   -9.1762    0.0000 O   0  0  0  0  0  0  0  0  0  0  0  0
    1.8133   -9.1753    0.0000 C   0  0  0  0  0  0  0  0  0  0  0  0
  1  2  1  0  0  0  0
  2  3  1  0  0  0  0
  3  4  1  0  0  0  0
  4  5  1  0  0  0  0
  5  6  1  0  0  0  0
  6  1  1  0  0  0  0
  4  7  1  0  0  0  0
  7  8  1  0  0  0  0
  8  9  1  0  0  0  0
  9 10  1  0  0  0  0
 10  5  1  0  0  0  0
  9 11  1  0  0  0  0
 11 12  1  0  0  0  0
 12 13  1  0  0  0  0
 13 14  1  0  0  0  0
 14 10  1  0  0  0  0
 11 15  1  0  0  0  0
 15 16  1  0  0  0  0
 16 17  1  0  0  0  0
 17 12  1  0  0  0  0
  2 18  1  1  0  0  0
  5 19  1  1  0  0  0
  9 20  1  1  0  0  0
 11 20  1  1  0  0  0
 12 21  1  1  0  0  0
 13 22  1  1  0  0  0
  4 23  1  6  0  0  0
 10 24  1  6  0  0  0
 14 25  1  6  0  0  0
 17 26  1  6  0  0  0
 26 27  1  0  0  0  0
 26 28  2  0  0  0  0
 25 29  1  0  0  0  0
 29 30  1  0  0  0  0
 29 31  2  0  0  0  0
 30 32  2  0  0  0  0
 32 33  1  0  0  0  0
 33 34  2  0  0  0  0
 34 35  1  0  0  0  0
 35 36  2  0  0  0  0
 36 30  1  0  0  0  0
 22 37  1  0  0  0  0
 37 38  2  0  0  0  0
 37 39  1  0  0  0  0
 39 40  2  0  0  0  0
 39 41  1  0  0  0  0
 40 42  1  0  0  0  0
 43 44  1  0  0  0  0
 44 45  1  0  0  0  0
 45 46  1  0  0  0  0
 46 47  1  0  0  0  0
 47 48  1  0  0  0  0
 48 43  1  0  0  0  0
 43 49  1  1  0  0  0
 44 50  1  6  0  0  0
 45 51  1  1  0  0  0
 51 52  1  0  0  0  0
 53 50  1  1  0  0  0
 53 54  1  0  0  0  0
 54 55  1  0  0  0  0
 55 56  1  0  0  0  0
 56 57  1  0  0  0  0
 57 58  1  0  0  0  0
 58 53  1  0  0  0  0
 55 59  1  1  0  0  0
 56 60  1  6  0  0  0
 57 61  1  6  0  0  0
 58 62  1  6  0  0  0
 61 63  1  0  0  0  0
 47 18  1  1  0  0  0
M  END
>  <cdx:fragmentId>
5

$$$$
