98359.cdx
  Mrv1902 05222410242D          

 78 86  0  0  0  0            999 V2000
   10.8551   -7.3992    0.0000 C   0  0  0  0  0  0  0  0  0  0  0  0
   10.8551   -8.2242    0.0000 C   0  0  1  0  0  0  0  0  0  0  0  0
   11.5696   -8.6367    0.0000 C   0  0  0  0  0  0  0  0  0  0  0  0
   12.2841   -8.2242    0.0000 C   0  0  1  0  0  0  0  0  0  0  0  0
   12.2841   -7.3992    0.0000 C   0  0  2  0  0  0  0  0  0  0  0  0
   11.5696   -6.9867    0.0000 C   0  0  0  0  0  0  0  0  0  0  0  0
   12.9985   -8.6367    0.0000 C   0  0  0  0  0  0  0  0  0  0  0  0
   13.7130   -8.2242    0.0000 C   0  0  0  0  0  0  0  0  0  0  0  0
   13.7130   -7.3992    0.0000 C   0  0  2  0  0  0  0  0  0  0  0  0
   12.9985   -6.9867    0.0000 C   0  0  2  0  0  0  0  0  0  0  0  0
   14.4275   -6.9867    0.0000 C   0  0  1  0  0  0  0  0  0  0  0  0
   14.4275   -6.1617    0.0000 C   0  0  0  0  0  0  0  0  0  0  0  0
   13.7130   -5.7492    0.0000 C   0  0  0  0  0  0  0  0  0  0  0  0
   12.9985   -6.1617    0.0000 C   0  0  0  0  0  0  0  0  0  0  0  0
   15.1419   -7.3992    0.0000 C   0  0  0  0  0  0  0  0  0  0  0  0
   15.8564   -6.9867    0.0000 C   0  0  0  0  0  0  0  0  0  0  0  0
   15.8564   -6.1617    0.0000 C   0  0  2  0  0  0  0  0  0  0  0  0
   15.1419   -5.7492    0.0000 C   0  0  1  0  0  0  0  0  0  0  0  0
   16.5709   -5.7492    0.0000 C   0  0  0  0  0  0  0  0  0  0  0  0
   16.5709   -4.9242    0.0000 C   0  0  0  0  0  0  0  0  0  0  0  0
   15.8564   -4.5117    0.0000 C   0  0  0  0  0  0  0  0  0  0  0  0
   15.1419   -4.9242    0.0000 C   0  0  0  0  0  0  0  0  0  0  0  0
   10.1406   -8.6367    0.0000 O   0  0  0  0  0  0  0  0  0  0  0  0
   11.1571   -9.3512    0.0000 C   0  0  0  0  0  0  0  0  0  0  0  0
   12.2841   -6.5742    0.0000 C   0  0  0  0  0  0  0  0  0  0  0  0
   13.7130   -6.5742    0.0000 C   0  0  0  0  0  0  0  0  0  0  0  0
   15.4439   -3.7973    0.0000 C   0  0  0  0  0  0  0  0  0  0  0  0
   17.2854   -6.1617    0.0000 O   0  0  0  0  0  0  0  0  0  0  0  0
   11.9821   -9.3512    0.0000 C   0  0  0  0  0  0  0  0  0  0  0  0
   14.4275   -7.8117    0.0000 C   0  0  0  0  0  0  0  0  0  0  0  0
   16.2689   -3.7973    0.0000 C   0  0  0  0  0  0  0  0  0  0  0  0
   20.1544   -6.1573    0.0000 O   0  0  0  0  0  0  0  0  0  0  0  0
   18.0088   -6.5666    0.0000 C   0  0  1  0  0  0  0  0  0  0  0  0
   18.7219   -6.1518    0.0000 C   0  0  2  0  0  0  0  0  0  0  0  0
   18.7191   -5.3268    0.0000 O   0  0  0  0  0  0  0  0  0  0  0  0
   19.4377   -6.5619    0.0000 C   0  0  2  0  0  0  0  0  0  0  0  0
   19.4405   -7.3869    0.0000 C   0  0  2  0  0  0  0  0  0  0  0  0
   20.1563   -7.7970    0.0000 O   0  0  0  0  0  0  0  0  0  0  0  0
   18.7274   -7.8018    0.0000 C   0  0  2  0  0  0  0  0  0  0  0  0
   18.0115   -7.3916    0.0000 O   0  0  0  0  0  0  0  0  0  0  0  0
   18.7301   -8.6267    0.0000 C   0  0  0  0  0  0  0  0  0  0  0  0
   19.4460   -9.0369    0.0000 O   0  0  0  0  0  0  0  0  0  0  0  0
   16.5709   -7.3992    0.0000 O   0  0  0  0  0  0  0  0  0  0  0  0
   16.5709   -6.5742    0.0000 C   0  0  0  0  0  0  0  0  0  0  0  0
    9.4350   -8.2280    0.0000 C   0  0  1  0  0  0  0  0  0  0  0  0
    8.7208   -8.6411    0.0000 C   0  0  2  0  0  0  0  0  0  0  0  0
    8.7215   -9.4661    0.0000 O   0  0  0  0  0  0  0  0  0  0  0  0
    8.0060   -8.2291    0.0000 C   0  0  2  0  0  0  0  0  0  0  0  0
    8.0054   -7.4041    0.0000 C   0  0  2  0  0  0  0  0  0  0  0  0
    7.2906   -6.9922    0.0000 O   0  0  0  0  0  0  0  0  0  0  0  0
    8.7195   -6.9911    0.0000 C   0  0  2  0  0  0  0  0  0  0  0  0
    9.4343   -7.4030    0.0000 O   0  0  0  0  0  0  0  0  0  0  0  0
    8.7188   -6.1661    0.0000 C   0  0  0  0  0  0  0  0  0  0  0  0
    8.0040   -5.7541    0.0000 O   0  0  0  0  0  0  0  0  0  0  0  0
    7.2443   -8.6698    0.0000 O   0  0  0  0  0  0  0  0  0  0  0  0
    9.4330   -5.7530    0.0000 O   0  0  0  0  0  0  0  0  0  0  0  0
    5.8057   -6.1990    0.0000 C   0  0  0  0  0  0  0  0  0  0  0  0
    6.5259   -7.4332    0.0000 O   0  0  0  0  0  0  0  0  0  0  0  0
    5.8095   -7.0240    0.0000 C   0  0  2  0  0  0  0  0  0  0  0  0
    4.3806   -7.0306    0.0000 O   0  0  0  0  0  0  0  0  0  0  0  0
    5.0970   -7.4398    0.0000 C   0  0  2  0  0  0  0  0  0  0  0  0
    4.3883   -8.6806    0.0000 O   0  0  0  0  0  0  0  0  0  0  0  0
    5.1008   -8.2648    0.0000 C   0  0  1  0  0  0  0  0  0  0  0  0
    5.8210   -9.4989    0.0000 O   0  0  0  0  0  0  0  0  0  0  0  0
    5.8172   -8.6740    0.0000 C   0  0  1  0  0  0  0  0  0  0  0  0
    6.5297   -8.2581    0.0000 C   0  0  2  0  0  0  0  0  0  0  0  0
   19.4470   -4.9134    0.0000 C   0  0  2  0  0  0  0  0  0  0  0  0
   20.1566   -5.3342    0.0000 O   0  0  0  0  0  0  0  0  0  0  0  0
   20.8758   -4.9299    0.0000 C   0  0  0  0  0  0  0  0  0  0  0  0
   20.8853   -4.1050    0.0000 C   0  0  2  0  0  0  0  0  0  0  0  0
   20.1757   -3.6843    0.0000 C   0  0  1  0  0  0  0  0  0  0  0  0
   19.4565   -4.0885    0.0000 C   0  0  1  0  0  0  0  0  0  0  0  0
   21.6045   -3.7007    0.0000 O   0  0  0  0  0  0  0  0  0  0  0  0
   18.7468   -3.6678    0.0000 O   0  0  0  0  0  0  0  0  0  0  0  0
   20.1852   -2.8593    0.0000 O   0  0  0  0  0  0  0  0  0  0  0  0
   12.2841   -9.0492    0.0000 H   0  0  0  0  0  0  0  0  0  0  0  0
   12.9985   -7.8117    0.0000 H   0  0  0  0  0  0  0  0  0  0  0  0
   15.1419   -6.5742    0.0000 H   0  0  0  0  0  0  0  0  0  0  0  0
  1  2  1  0  0  0  0
  2  3  1  0  0  0  0
  3  4  1  0  0  0  0
  4  5  1  0  0  0  0
  5  6  1  0  0  0  0
  6  1  1  0  0  0  0
  4  7  1  0  0  0  0
  7  8  1  0  0  0  0
  8  9  1  0  0  0  0
  9 10  1  0  0  0  0
 10  5  1  0  0  0  0
  9 11  1  0  0  0  0
 11 12  1  0  0  0  0
 12 13  2  0  0  0  0
 13 14  1  0  0  0  0
 14 10  1  0  0  0  0
 11 15  1  0  0  0  0
 15 16  1  0  0  0  0
 16 17  1  0  0  0  0
 17 18  1  0  0  0  0
 18 12  1  0  0  0  0
 17 19  1  0  0  0  0
 19 20  1  0  0  0  0
 20 21  1  0  0  0  0
 21 22  1  0  0  0  0
 22 18  1  0  0  0  0
  2 23  1  1  0  0  0
  3 24  1  0  0  0  0
  5 25  1  1  0  0  0
  9 26  1  1  0  0  0
 21 27  1  0  0  0  0
 17 44  1  1  0  0  0
  3 29  1  0  0  0  0
 11 30  1  6  0  0  0
 21 31  1  0  0  0  0
 33 34  1  0  0  0  0
 34 35  1  6  0  0  0
 34 36  1  0  0  0  0
 36 37  1  0  0  0  0
 37 38  1  6  0  0  0
 37 39  1  0  0  0  0
 39 40  1  0  0  0  0
 39 41  1  1  0  0  0
 41 42  1  0  0  0  0
 33 40  1  0  0  0  0
 36 32  1  1  0  0  0
 44 28  1  0  0  0  0
 33 28  1  1  0  0  0
 44 43  2  0  0  0  0
 45 46  1  0  0  0  0
 46 47  1  6  0  0  0
 46 48  1  0  0  0  0
 48 55  1  1  0  0  0
 48 49  1  0  0  0  0
 49 50  1  6  0  0  0
 49 51  1  0  0  0  0
 51 52  1  0  0  0  0
 51 53  1  1  0  0  0
 53 54  1  0  0  0  0
 45 52  1  0  0  0  0
 53 56  2  0  0  0  0
 66 58  1  0  0  0  0
 59 57  1  6  0  0  0
 59 58  1  0  0  0  0
 61 59  1  0  0  0  0
 61 60  1  1  0  0  0
 63 61  1  0  0  0  0
 63 62  1  6  0  0  0
 65 63  1  0  0  0  0
 65 64  1  6  0  0  0
 66 65  1  0  0  0  0
 45 23  1  1  0  0  0
 66 55  1  1  0  0  0
 67 68  1  0  0  0  0
 68 69  1  0  0  0  0
 69 70  1  0  0  0  0
 70 71  1  0  0  0  0
 71 72  1  0  0  0  0
 72 67  1  0  0  0  0
 70 73  1  6  0  0  0
 72 74  1  6  0  0  0
 71 75  1  1  0  0  0
 67 35  1  1  0  0  0
  4 76  1  6  0  0  0
 10 77  1  6  0  0  0
 18 78  1  1  0  0  0
M  END
>  <cdx:fragmentId>
5

$$$$
