98354.cdx
  Mrv1902 05222410222D          

 70 76  0  0  0  0            999 V2000
    9.0047   -9.6571    0.0000 C   0  0  0  0  0  0  0  0  0  0  0  0
    9.0047  -10.3171    0.0000 C   0  0  1  0  0  0  0  0  0  0  0  0
    9.5762  -10.6471    0.0000 C   0  0  0  0  0  0  0  0  0  0  0  0
   10.1478  -10.3171    0.0000 C   0  0  1  0  0  0  0  0  0  0  0  0
   10.1478   -9.6571    0.0000 C   0  0  2  0  0  0  0  0  0  0  0  0
    9.5762   -9.3271    0.0000 C   0  0  0  0  0  0  0  0  0  0  0  0
   10.7194  -10.6471    0.0000 C   0  0  0  0  0  0  0  0  0  0  0  0
   11.2910  -10.3171    0.0000 C   0  0  0  0  0  0  0  0  0  0  0  0
   11.2910   -9.6571    0.0000 C   0  0  2  0  0  0  0  0  0  0  0  0
   10.7194   -9.3271    0.0000 C   0  0  2  0  0  0  0  0  0  0  0  0
   11.8625   -9.3271    0.0000 C   0  0  2  0  0  0  0  0  0  0  0  0
   11.8625   -8.6671    0.0000 C   0  0  2  0  0  0  0  0  0  0  0  0
   11.2910   -8.3371    0.0000 C   0  0  1  0  0  0  0  0  0  0  0  0
   10.7194   -8.6671    0.0000 C   0  0  1  0  0  0  0  0  0  0  0  0
   12.4902   -9.5311    0.0000 C   0  0  0  0  0  0  0  0  0  0  0  0
   12.8782   -8.9971    0.0000 C   0  0  0  0  0  0  0  0  0  0  0  0
   12.4902   -8.4632    0.0000 C   0  0  1  0  0  0  0  0  0  0  0  0
    8.4331  -10.6471    0.0000 O   0  0  0  0  0  0  0  0  0  0  0  0
   10.1478   -8.9971    0.0000 C   0  0  0  0  0  0  0  0  0  0  0  0
   11.8625   -9.9871    0.0000 O   0  0  0  0  0  0  0  0  0  0  0  0
   11.9315   -8.0107    0.0000 C   0  0  0  0  0  0  0  0  0  0  0  0
   11.2910   -7.6771    0.0000 O   0  0  0  0  0  0  0  0  0  0  0  0
   10.1478  -10.9771    0.0000 H   0  0  0  0  0  0  0  0  0  0  0  0
   10.7194   -9.9871    0.0000 H   0  0  0  0  0  0  0  0  0  0  0  0
   10.1478   -8.3371    0.0000 O   0  0  0  0  0  0  0  0  0  0  0  0
   12.6942   -7.8355    0.0000 C   0  0  0  0  0  0  0  0  0  0  0  0
   12.2526   -7.3450    0.0000 C   0  0  0  0  0  0  0  0  0  0  0  0
   13.3398   -7.6983    0.0000 O   0  0  0  0  0  0  0  0  0  0  0  0
   10.1478   -7.6771    0.0000 C   0  0  0  0  0  0  0  0  0  0  0  0
    9.5762   -7.3471    0.0000 C   0  0  0  0  0  0  0  0  0  0  0  0
   10.7194   -7.3471    0.0000 O   0  0  0  0  0  0  0  0  0  0  0  0
    9.5762   -6.6871    0.0000 C   0  0  0  0  0  0  0  0  0  0  0  0
    8.4331   -7.3471    0.0000 C   0  0  0  0  0  0  0  0  0  0  0  0
    9.0047   -7.6771    0.0000 C   0  0  0  0  0  0  0  0  0  0  0  0
    7.2922   -9.3216    0.0000 C   0  0  2  0  0  0  0  0  0  0  0  0
    6.7204   -9.6512    0.0000 C   0  0  2  0  0  0  0  0  0  0  0  0
    6.7200  -10.3112    0.0000 C   0  0  1  0  0  0  0  0  0  0  0  0
    7.2914  -10.6416    0.0000 C   0  0  0  0  0  0  0  0  0  0  0  0
    7.8631  -10.3120    0.0000 C   0  0  0  0  0  0  0  0  0  0  0  0
    7.8636   -9.6520    0.0000 O   0  0  0  0  0  0  0  0  0  0  0  0
    7.2926   -8.6616    0.0000 C   0  0  0  0  0  0  0  0  0  0  0  0
    6.1491   -9.3209    0.0000 O   0  0  0  0  0  0  0  0  0  0  0  0
    6.1482  -10.6409    0.0000 O   0  0  0  0  0  0  0  0  0  0  0  0
    6.1478  -11.3009    0.0000 C   0  0  0  0  0  0  0  0  0  0  0  0
    5.5777   -8.9905    0.0000 C   0  0  2  0  0  0  0  0  0  0  0  0
    5.5781   -8.3305    0.0000 O   0  0  0  0  0  0  0  0  0  0  0  0
    5.0068   -8.0001    0.0000 C   0  0  1  0  0  0  0  0  0  0  0  0
    4.4350   -8.3298    0.0000 C   0  0  2  0  0  0  0  0  0  0  0  0
    4.4345   -8.9898    0.0000 C   0  0  2  0  0  0  0  0  0  0  0  0
    5.0059   -9.3201    0.0000 C   0  0  1  0  0  0  0  0  0  0  0  0
    5.0072   -7.3401    0.0000 C   0  0  0  0  0  0  0  0  0  0  0  0
    3.8636   -7.9994    0.0000 O   0  0  0  0  0  0  0  0  0  0  0  0
    3.8628   -9.3194    0.0000 O   0  0  0  0  0  0  0  0  0  0  0  0
    5.0055   -9.9801    0.0000 O   0  0  0  0  0  0  0  0  0  0  0  0
    3.8623   -9.9794    0.0000 C   0  0  0  0  0  0  0  0  0  0  0  0
   11.6210   -7.1055    0.0000 C   0  0  0  0  0  0  0  0  0  0  0  0
   12.2810   -7.1055    0.0000 O   0  0  0  0  0  0  0  0  0  0  0  0
   11.2910   -6.5340    0.0000 C   0  0  0  0  0  0  0  0  0  0  0  0
    8.4347   -9.9820    0.0000 O   0  0  0  0  0  0  0  0  0  0  0  0
    2.2347   -7.3968    0.0000 C   0  0  2  0  0  0  0  0  0  0  0  0
    1.8935   -7.9618    0.0000 C   0  0  2  0  0  0  0  0  0  0  0  0
    2.2122   -8.5398    0.0000 C   0  0  1  0  0  0  0  0  0  0  0  0
    2.8720   -8.5528    0.0000 C   0  0  2  0  0  0  0  0  0  0  0  0
    3.2132   -7.9878    0.0000 C   0  0  1  0  0  0  0  0  0  0  0  0
    2.8945   -7.4098    0.0000 O   0  0  0  0  0  0  0  0  0  0  0  0
    1.9160   -6.8189    0.0000 C   0  0  0  0  0  0  0  0  0  0  0  0
    1.8710   -9.1047    0.0000 O   0  0  0  0  0  0  0  0  0  0  0  0
    1.2336   -7.9488    0.0000 O   0  0  0  0  0  0  0  0  0  0  0  0
    3.1907   -9.1307    0.0000 O   0  0  0  0  0  0  0  0  0  0  0  0
    2.2572   -6.2539    0.0000 O   0  0  0  0  0  0  0  0  0  0  0  0
  1  2  1  0  0  0  0
  2  3  1  0  0  0  0
  3  4  1  0  0  0  0
  4  5  1  0  0  0  0
  5  6  1  0  0  0  0
  6  1  1  0  0  0  0
  4  7  1  0  0  0  0
  7  8  1  0  0  0  0
  8  9  1  0  0  0  0
  9 10  1  0  0  0  0
 10  5  1  0  0  0  0
  9 11  1  0  0  0  0
 11 12  1  0  0  0  0
 12 13  1  0  0  0  0
 13 14  1  0  0  0  0
 14 10  1  0  0  0  0
 11 15  1  0  0  0  0
 15 16  1  0  0  0  0
 16 17  1  0  0  0  0
 17 12  1  0  0  0  0
  2 18  1  1  0  0  0
  5 19  1  1  0  0  0
  9 20  1  1  0  0  0
 11 20  1  1  0  0  0
 12 21  1  1  0  0  0
 13 22  1  1  0  0  0
  4 23  1  6  0  0  0
 10 24  1  6  0  0  0
 14 25  1  6  0  0  0
 17 26  1  6  0  0  0
 26 27  1  0  0  0  0
 26 28  2  0  0  0  0
 25 29  1  0  0  0  0
 29 30  1  0  0  0  0
 29 31  2  0  0  0  0
 30 32  1  0  0  0  0
 33 34  1  0  0  0  0
 34 30  2  0  0  0  0
 35 36  1  0  0  0  0
 36 37  1  0  0  0  0
 37 38  1  0  0  0  0
 38 39  1  0  0  0  0
 40 35  1  0  0  0  0
 35 41  1  1  0  0  0
 36 42  1  6  0  0  0
 37 43  1  1  0  0  0
 43 44  1  0  0  0  0
 45 42  1  1  0  0  0
 45 46  1  0  0  0  0
 46 47  1  0  0  0  0
 47 48  1  0  0  0  0
 48 49  1  0  0  0  0
 49 50  1  0  0  0  0
 50 45  1  0  0  0  0
 47 51  1  1  0  0  0
 48 52  1  6  0  0  0
 49 53  1  6  0  0  0
 50 54  1  6  0  0  0
 53 55  1  0  0  0  0
 39 18  1  0  0  0  0
 22 56  1  0  0  0  0
 56 57  2  0  0  0  0
 56 58  1  0  0  0  0
 39 59  2  0  0  0  0
 60 61  1  0  0  0  0
 61 62  1  0  0  0  0
 62 63  1  0  0  0  0
 63 64  1  0  0  0  0
 64 65  1  0  0  0  0
 65 60  1  0  0  0  0
 60 66  1  1  0  0  0
 62 67  1  1  0  0  0
 61 68  1  6  0  0  0
 63 69  1  6  0  0  0
 66 70  1  0  0  0  0
 64 52  1  1  0  0  0
M  END
>  <cdx:fragmentId>
5

$$$$
