98365.cdx
  Mrv1902 05222410242D          

 32 34  0  0  0  0            999 V2000
    9.5985   -4.8954    0.0000 C   0  0  0  0  0  0  0  0  0  0  0  0
    9.3421   -5.6796    0.0000 C   0  0  0  0  0  0  0  0  0  0  0  0
    8.5348   -5.8497    0.0000 C   0  0  0  0  0  0  0  0  0  0  0  0
    8.2785   -6.6338    0.0000 C   0  0  0  0  0  0  0  0  0  0  0  0
    7.4712   -6.8039    0.0000 C   0  0  1  0  0  0  0  0  0  0  0  0
    6.9203   -6.1898    0.0000 C   0  0  0  0  0  0  0  0  0  0  0  0
    7.2149   -7.5881    0.0000 C   0  0  1  0  0  0  0  0  0  0  0  0
    7.6986   -8.2564    0.0000 C   0  0  0  0  0  0  0  0  0  0  0  0
    7.2125   -8.9229    0.0000 C   0  0  0  0  0  0  0  0  0  0  0  0
    6.4283   -8.6666    0.0000 C   0  0  1  0  0  0  0  0  0  0  0  0
    5.7131   -9.0778    0.0000 C   0  0  0  0  0  0  0  0  0  0  0  0
    4.9994   -8.6640    0.0000 C   0  0  0  0  0  0  0  0  0  0  0  0
    5.0009   -7.8390    0.0000 C   0  0  0  0  0  0  0  0  0  0  0  0
    5.7161   -7.4278    0.0000 C   0  0  0  0  0  0  0  0  0  0  0  0
    6.4298   -7.8416    0.0000 C   0  0  2  0  0  0  0  0  0  0  0  0
    6.5175   -7.0213    0.0000 C   0  0  0  0  0  0  0  0  0  0  0  0
    5.7116   -9.9028    0.0000 C   0  0  0  0  0  0  0  0  0  0  0  0
    4.9964  -10.3140    0.0000 C   0  0  0  0  0  0  0  0  0  0  0  0
    4.9950  -11.1390    0.0000 C   0  0  0  0  0  0  0  0  0  0  0  0
    5.7087  -11.5528    0.0000 C   0  0  0  0  0  0  0  0  0  0  0  0
    5.7072  -12.3778    0.0000 C   0  0  0  0  0  0  0  0  0  0  0  0
    4.9920  -12.7890    0.0000 C   0  0  0  0  0  0  0  0  0  0  0  0
    4.2783  -12.3753    0.0000 C   0  0  1  0  0  0  0  0  0  0  0  0
    4.2797  -11.5503    0.0000 C   0  0  0  0  0  0  0  0  0  0  0  0
    6.4239  -11.1416    0.0000 C   0  0  0  0  0  0  0  0  0  0  0  0
    3.5631  -12.7865    0.0000 O   0  0  0  0  0  0  0  0  0  0  0  0
    6.5131   -9.4872    0.0000 H   0  0  0  0  0  0  0  0  0  0  0  0
    7.9999   -7.3345    0.0000 H   0  0  0  0  0  0  0  0  0  0  0  0
   10.3953   -5.1089    0.0000 O   0  0  0  0  0  0  0  0  0  0  0  0
    8.8016   -4.6819    0.0000 C   0  0  0  0  0  0  0  0  0  0  0  0
    9.8548   -4.1112    0.0000 C   0  0  0  0  0  0  0  0  0  0  0  0
   10.6621   -3.9412    0.0000 O   0  0  0  0  0  0  0  0  0  0  0  0
  1  2  1  0  0  0  0
  2  3  1  0  0  0  0
  3  4  1  0  0  0  0
  4  5  1  0  0  0  0
  5  6  1  6  0  0  0
  7  8  1  0  0  0  0
  8  9  1  0  0  0  0
  9 10  1  0  0  0  0
 10 11  1  0  0  0  0
 11 12  1  0  0  0  0
 12 13  1  0  0  0  0
 13 14  1  0  0  0  0
 14 15  1  0  0  0  0
  7 15  1  0  0  0  0
 10 15  1  0  0  0  0
 15 16  1  1  0  0  0
 17 18  1  0  0  0  0
 19 20  1  0  0  0  0
 20 21  1  0  0  0  0
 21 22  1  0  0  0  0
 22 23  1  0  0  0  0
 23 24  1  0  0  0  0
 19 24  1  0  0  0  0
 20 25  2  0  0  0  0
 23 26  1  6  0  0  0
 18 19  2  0  0  0  0
 11 17  2  0  0  0  0
  5  7  1  0  0  0  0
 10 27  1  6  0  0  0
  7 28  1  6  0  0  0
  1 29  1  0  0  0  0
  1 30  1  0  0  0  0
  1 31  1  0  0  0  0
 31 32  1  0  0  0  0
M  END
>  <cdx:fragmentId>
25

$$$$
