98360.cdx
  Mrv1902 05222410262D          

 17 19  0  0  0  0            999 V2000
    6.1239   -7.2822    0.0000 C   0  0  0  0  0  0  0  0  0  0  0  0
    5.4095   -7.6947    0.0000 C   0  0  0  0  0  0  0  0  0  0  0  0
    5.4095   -8.5197    0.0000 C   0  0  0  0  0  0  0  0  0  0  0  0
    6.1239   -8.9322    0.0000 C   0  0  0  0  0  0  0  0  0  0  0  0
    6.8384   -8.5197    0.0000 C   0  0  0  0  0  0  0  0  0  0  0  0
    7.5529   -8.9322    0.0000 C   0  0  0  0  0  0  0  0  0  0  0  0
    8.2674   -8.5197    0.0000 C   0  0  0  0  0  0  0  0  0  0  0  0
    8.2674   -7.6947    0.0000 C   0  0  0  0  0  0  0  0  0  0  0  0
    7.5529   -7.2822    0.0000 C   0  0  0  0  0  0  0  0  0  0  0  0
    6.8384   -7.6947    0.0000 C   0  0  0  0  0  0  0  0  0  0  0  0
    4.6950   -7.2822    0.0000 O   0  0  0  0  0  0  0  0  0  0  0  0
    9.6963   -9.3447    0.0000 O   0  0  0  0  0  0  0  0  0  0  0  0
    8.9818   -8.9322    0.0000 C   0  0  0  0  0  0  0  0  0  0  0  0
    9.6963   -8.5197    0.0000 C   0  0  0  0  0  0  0  0  0  0  0  0
    8.2674   -9.3447    0.0000 C   0  0  0  0  0  0  0  0  0  0  0  0
    6.8384   -9.3447    0.0000 C   0  0  0  0  0  0  0  0  0  0  0  0
    6.1239   -9.7572    0.0000 C   0  0  0  0  0  0  0  0  0  0  0  0
  1  2  1  0  0  0  0
  2  3  1  0  0  0  0
  3  4  1  0  0  0  0
  4  5  1  0  0  0  0
  5  6  1  0  0  0  0
  6  7  1  0  0  0  0
  7  8  1  0  0  0  0
  8  9  1  0  0  0  0
  9 10  1  0  0  0  0
  1 10  2  0  0  0  0
  5 10  1  0  0  0  0
  2 11  2  0  0  0  0
 12 13  1  0  0  0  0
 13 14  1  0  0  0  0
 12 14  1  0  0  0  0
 13 15  1  0  0  0  0
  7 13  1  0  0  0  0
  5 16  1  0  0  0  0
  4 17  1  0  0  0  0
M  END
>  <cdx:fragmentId>
5

$$$$
