98366.cdx
  Mrv1902 05222410242D          

 35 40  0  0  0  0            999 V2000
    5.1997   -9.3732    0.0000 C   0  0  0  0  0  0  0  0  0  0  0  0
    4.4852   -9.7857    0.0000 C   0  0  0  0  0  0  0  0  0  0  0  0
    4.4852  -10.6107    0.0000 C   0  0  0  0  0  0  0  0  0  0  0  0
    5.1997  -11.0232    0.0000 C   0  0  0  0  0  0  0  0  0  0  0  0
    5.9142  -10.6107    0.0000 C   0  0  0  0  0  0  0  0  0  0  0  0
    6.6286  -11.0232    0.0000 C   0  0  0  0  0  0  0  0  0  0  0  0
    7.3431  -10.6107    0.0000 C   0  0  0  0  0  0  0  0  0  0  0  0
    7.3431   -9.7857    0.0000 C   0  0  0  0  0  0  0  0  0  0  0  0
    8.0576   -9.3732    0.0000 C   0  0  0  0  0  0  0  0  0  0  0  0
    8.8422   -9.6282    0.0000 C   0  0  0  0  0  0  0  0  0  0  0  0
    9.3271   -8.9607    0.0000 C   0  0  0  0  0  0  0  0  0  0  0  0
    8.8422   -8.2933    0.0000 C   0  0  0  0  0  0  0  0  0  0  0  0
    8.0576   -8.5482    0.0000 C   0  0  0  0  0  0  0  0  0  0  0  0
    7.3431   -8.1357    0.0000 C   0  0  0  0  0  0  0  0  0  0  0  0
    6.6286   -8.5482    0.0000 C   0  0  0  0  0  0  0  0  0  0  0  0
    6.6286   -9.3732    0.0000 C   0  0  0  0  0  0  0  0  0  0  0  0
    5.9142   -9.7857    0.0000 C   0  0  0  0  0  0  0  0  0  0  0  0
    3.7707  -11.0232    0.0000 O   0  0  0  0  0  0  0  0  0  0  0  0
    8.1438   -7.7278    0.0000 C   0  0  0  0  0  0  0  0  0  0  0  0
    9.4553   -7.7413    0.0000 C   0  0  0  0  0  0  0  0  0  0  0  0
   10.2399   -7.9962    0.0000 C   0  0  0  0  0  0  0  0  0  0  0  0
   10.8530   -7.4442    0.0000 C   0  0  0  0  0  0  0  0  0  0  0  0
   11.6376   -7.6991    0.0000 O   0  0  0  0  0  0  0  0  0  0  0  0
    8.6707   -7.4863    0.0000 O   0  0  0  0  0  0  0  0  0  0  0  0
    5.9142   -8.1357    0.0000 C   0  0  0  0  0  0  0  0  0  0  0  0
    5.1997   -8.5482    0.0000 C   0  0  0  0  0  0  0  0  0  0  0  0
    4.4852   -8.1357    0.0000 C   0  0  0  0  0  0  0  0  0  0  0  0
    4.4852   -7.3107    0.0000 C   0  0  0  0  0  0  0  0  0  0  0  0
    5.1997   -6.8982    0.0000 C   0  0  0  0  0  0  0  0  0  0  0  0
    5.9142   -7.3107    0.0000 C   0  0  0  0  0  0  0  0  0  0  0  0
    2.8775   -5.9062    0.0000 O   0  0  0  0  0  0  0  0  0  0  0  0
    3.6845   -6.0778    0.0000 C   0  0  0  0  0  0  0  0  0  0  0  0
    3.7707   -6.8982    0.0000 C   0  0  0  0  0  0  0  0  0  0  0  0
    3.0171   -7.2338    0.0000 C   0  0  0  0  0  0  0  0  0  0  0  0
    2.4650   -6.6207    0.0000 C   0  0  0  0  0  0  0  0  0  0  0  0
  1  2  1  0  0  0  0
  2  3  1  0  0  0  0
  3  4  1  0  0  0  0
  4  5  2  0  0  0  0
  5  6  1  0  0  0  0
  6  7  1  0  0  0  0
  7  8  1  0  0  0  0
  8  9  1  0  0  0  0
  9 10  1  0  0  0  0
 10 11  1  0  0  0  0
 11 12  1  0  0  0  0
 12 13  1  0  0  0  0
  9 13  1  0  0  0  0
 13 14  1  0  0  0  0
 14 15  1  0  0  0  0
 15 16  1  0  0  0  0
  8 16  1  0  0  0  0
 16 17  2  0  0  0  0
  5 17  1  0  0  0  0
  1 17  1  0  0  0  0
  3 18  2  0  0  0  0
 13 19  1  0  0  0  0
 20 21  1  0  0  0  0
 21 22  1  0  0  0  0
 22 23  1  0  0  0  0
 12 20  1  0  0  0  0
 12 24  1  0  0  0  0
 25 26  1  0  0  0  0
 26 27  2  0  0  0  0
 27 28  1  0  0  0  0
 28 29  2  0  0  0  0
 29 30  1  0  0  0  0
 25 30  2  0  0  0  0
 31 32  1  0  0  0  0
 32 33  2  0  0  0  0
 33 34  1  0  0  0  0
 34 35  2  0  0  0  0
 31 35  1  0  0  0  0
 28 33  1  0  0  0  0
 15 25  1  0  0  0  0
M  END
>  <cdx:fragmentId>
5

$$$$
