98367.cdx
  Mrv1902 05222410242D          

 29 32  0  0  0  0            999 V2000
    8.2190  -11.0825    0.0000 C   0  0  0  0  0  0  0  0  0  0  0  0
    8.9334  -10.6700    0.0000 C   0  0  0  0  0  0  0  0  0  0  0  0
    8.9334   -9.8450    0.0000 C   0  0  0  0  0  0  0  0  0  0  0  0
    8.2190   -9.4325    0.0000 C   0  0  0  0  0  0  0  0  0  0  0  0
    7.5045   -9.8450    0.0000 C   0  0  0  0  0  0  0  0  0  0  0  0
    6.7900   -9.4325    0.0000 C   0  0  0  0  0  0  0  0  0  0  0  0
    6.0756   -9.8450    0.0000 C   0  0  0  0  0  0  0  0  0  0  0  0
    5.3611   -9.4325    0.0000 C   0  0  0  0  0  0  0  0  0  0  0  0
    4.6466   -9.8450    0.0000 C   0  0  0  0  0  0  0  0  0  0  0  0
    4.6466  -10.6700    0.0000 C   0  0  0  0  0  0  0  0  0  0  0  0
    5.3611  -11.0825    0.0000 C   0  0  0  0  0  0  0  0  0  0  0  0
    6.0756  -10.6700    0.0000 C   0  0  0  0  0  0  0  0  0  0  0  0
    6.7900  -11.0825    0.0000 C   0  0  0  0  0  0  0  0  0  0  0  0
    7.5045  -10.6700    0.0000 C   0  0  0  0  0  0  0  0  0  0  0  0
    9.6479  -11.0825    0.0000 O   0  0  0  0  0  0  0  0  0  0  0  0
    6.7900  -11.9075    0.0000 O   0  0  0  0  0  0  0  0  0  0  0  0
    6.7900   -8.6075    0.0000 O   0  0  0  0  0  0  0  0  0  0  0  0
    8.2190   -8.6075    0.0000 O   0  0  0  0  0  0  0  0  0  0  0  0
    8.9334   -8.1950    0.0000 C   0  0  0  0  0  0  0  0  0  0  0  0
    9.7584   -8.1950    0.0000 C   0  0  0  0  0  0  0  0  0  0  0  0
    8.9334   -7.3700    0.0000 C   0  0  0  0  0  0  0  0  0  0  0  0
    8.2190   -6.9575    0.0000 C   0  0  0  0  0  0  0  0  0  0  0  0
    8.9334   -5.7200    0.0000 C   0  0  0  0  0  0  0  0  0  0  0  0
    9.6479   -6.9575    0.0000 C   0  0  0  0  0  0  0  0  0  0  0  0
    8.2190   -6.1325    0.0000 C   0  0  0  0  0  0  0  0  0  0  0  0
    9.6479   -6.1325    0.0000 C   0  0  0  0  0  0  0  0  0  0  0  0
    8.9334   -4.8950    0.0000 C   0  0  0  0  0  0  0  0  0  0  0  0
    9.3459   -8.9095    0.0000 C   0  0  0  0  0  0  0  0  0  0  0  0
    5.3611   -8.6075    0.0000 O   0  0  0  0  0  0  0  0  0  0  0  0
  1  2  1  0  0  0  0
  2  3  1  0  0  0  0
  3  4  1  0  0  0  0
  4  5  1  0  0  0  0
  5  6  1  0  0  0  0
  6  7  1  0  0  0  0
  7  8  1  0  0  0  0
  8  9  2  0  0  0  0
  9 10  1  0  0  0  0
 10 11  2  0  0  0  0
 11 12  1  0  0  0  0
  7 12  2  0  0  0  0
 12 13  1  0  0  0  0
 13 14  1  0  0  0  0
  5 14  1  0  0  0  0
  1 14  1  0  0  0  0
  2 15  2  0  0  0  0
 13 16  2  0  0  0  0
  6 17  2  0  0  0  0
 19 20  1  0  0  0  0
 18 19  1  0  0  0  0
 21 22  1  0  0  0  0
 21 24  2  0  0  0  0
 22 25  2  0  0  0  0
 23 25  1  0  0  0  0
 23 26  2  0  0  0  0
 24 26  1  0  0  0  0
 23 27  1  0  0  0  0
 19 21  1  0  0  0  0
 19 28  1  0  0  0  0
  4 18  1  0  0  0  0
  8 29  1  0  0  0  0
M  END
>  <cdx:fragmentId>
5

$$$$
