98368.cdx
  Mrv1902 05222410222D          

 21 23  0  0  0  0            999 V2000
    8.3640   -7.2435    0.0000 C   0  0  0  0  0  0  0  0  0  0  0  0
    7.6495   -6.8310    0.0000 C   0  0  0  0  0  0  0  0  0  0  0  0
    6.9351   -7.2435    0.0000 C   0  0  0  0  0  0  0  0  0  0  0  0
    6.9351   -8.0685    0.0000 C   0  0  0  0  0  0  0  0  0  0  0  0
    6.2206   -8.4810    0.0000 C   0  0  0  0  0  0  0  0  0  0  0  0
    6.2206   -9.3060    0.0000 C   0  0  0  0  0  0  0  0  0  0  0  0
    6.9351   -9.7185    0.0000 C   0  0  0  0  0  0  0  0  0  0  0  0
    7.6495   -9.3060    0.0000 C   0  0  0  0  0  0  0  0  0  0  0  0
    7.6495   -8.4810    0.0000 C   0  0  0  0  0  0  0  0  0  0  0  0
    8.3640   -8.0685    0.0000 O   0  0  0  0  0  0  0  0  0  0  0  0
    5.5061   -9.7185    0.0000 C   0  0  0  0  0  0  0  0  0  0  0  0
    4.7916   -9.3060    0.0000 C   0  0  0  0  0  0  0  0  0  0  0  0
    4.7916   -8.4810    0.0000 C   0  0  0  0  0  0  0  0  0  0  0  0
    5.5061   -8.0685    0.0000 C   0  0  0  0  0  0  0  0  0  0  0  0
    9.1890   -7.2435    0.0000 C   0  0  0  0  0  0  0  0  0  0  0  0
    9.6015   -6.5290    0.0000 C   0  0  0  0  0  0  0  0  0  0  0  0
    6.2206   -7.6560    0.0000 C   0  0  0  0  0  0  0  0  0  0  0  0
    5.9186  -10.4330    0.0000 C   0  0  0  0  0  0  0  0  0  0  0  0
    5.0936  -10.4330    0.0000 C   0  0  0  0  0  0  0  0  0  0  0  0
    8.3640   -8.8935    0.0000 C   0  0  0  0  0  0  0  0  0  0  0  0
    8.7765   -6.5290    0.0000 C   0  0  0  0  0  0  0  0  0  0  0  0
  1  2  1  0  0  0  0
  2  3  1  0  0  0  0
  3  4  1  0  0  0  0
  4  5  1  0  0  0  0
  5  6  1  0  0  0  0
  6  7  1  0  0  0  0
  7  8  1  0  0  0  0
  8  9  1  0  0  0  0
  4  9  1  0  0  0  0
  9 10  1  0  0  0  0
  1 10  1  0  0  0  0
 11 12  1  0  0  0  0
 12 13  1  0  0  0  0
 13 14  1  0  0  0  0
 14  5  1  0  0  0  0
 11  6  1  0  0  0  0
 15 16  2  0  0  0  0
  1 15  1  0  0  0  0
  5 17  1  0  0  0  0
 11 18  1  0  0  0  0
 11 19  1  0  0  0  0
  9 20  1  0  0  0  0
  1 21  1  0  0  0  0
M  END
>  <cdx:fragmentId>
5

$$$$
