98369.cdx
  Mrv1902 05222410232D          

 34 37  0  0  0  0            999 V2000
    3.6382  -11.4721    0.0000 C   0  0  1  0  0  0  0  0  0  0  0  0
    3.6382  -10.6471    0.0000 C   0  0  0  0  0  0  0  0  0  0  0  0
    4.3527  -10.2346    0.0000 C   0  0  0  0  0  0  0  0  0  0  0  0
    4.3527  -11.8846    0.0000 C   0  0  0  0  0  0  0  0  0  0  0  0
    5.0672  -11.4721    0.0000 C   0  0  2  0  0  0  0  0  0  0  0  0
    5.7816  -11.8846    0.0000 C   0  0  0  0  0  0  0  0  0  0  0  0
    6.4961  -11.4721    0.0000 C   0  0  0  0  0  0  0  0  0  0  0  0
    6.4961  -10.6471    0.0000 C   0  0  0  0  0  0  0  0  0  0  0  0
    7.2106  -10.2346    0.0000 C   0  0  2  0  0  0  0  0  0  0  0  0
    7.9952  -10.4895    0.0000 C   0  0  0  0  0  0  0  0  0  0  0  0
    8.4801   -9.8221    0.0000 C   0  0  0  0  0  0  0  0  0  0  0  0
    7.9952   -9.1546    0.0000 C   0  0  1  0  0  0  0  0  0  0  0  0
    7.2106   -9.4096    0.0000 C   0  0  2  0  0  0  0  0  0  0  0  0
    7.2106   -8.5846    0.0000 C   0  0  0  0  0  0  0  0  0  0  0  0
    6.4961   -8.9971    0.0000 C   0  0  0  0  0  0  0  0  0  0  0  0
    5.7816   -9.4096    0.0000 C   0  0  0  0  0  0  0  0  0  0  0  0
    5.7816  -10.2346    0.0000 C   0  0  2  0  0  0  0  0  0  0  0  0
    5.0672  -10.6471    0.0000 C   0  0  1  0  0  0  0  0  0  0  0  0
    5.0672   -9.8221    0.0000 C   0  0  0  0  0  0  0  0  0  0  0  0
    7.2106  -11.0596    0.0000 H   0  0  0  0  0  0  0  0  0  0  0  0
    2.9237  -11.8846    0.0000 O   0  0  0  0  0  0  0  0  0  0  0  0
    8.1758   -8.4453    0.0000 C   0  0  2  0  0  0  0  0  0  0  0  0
    5.0672  -12.2971    0.0000 H   0  0  0  0  0  0  0  0  0  0  0  0
    5.7816  -11.0596    0.0000 H   0  0  0  0  0  0  0  0  0  0  0  0
    8.8202   -9.1546    0.0000 H   0  0  0  0  0  0  0  0  0  0  0  0
    7.5851   -7.8693    0.0000 C   0  0  0  0  0  0  0  0  0  0  0  0
    8.9699   -8.2217    0.0000 C   0  0  0  0  0  0  0  0  0  0  0  0
    9.1734   -7.4222    0.0000 C   0  0  0  0  0  0  0  0  0  0  0  0
    9.9675   -7.1987    0.0000 C   0  0  2  0  0  0  0  0  0  0  0  0
   10.5582   -7.7747    0.0000 C   0  0  0  0  0  0  0  0  0  0  0  0
   10.1710   -6.3992    0.0000 C   0  0  0  0  0  0  0  0  0  0  0  0
    9.5804   -5.8232    0.0000 C   0  0  0  0  0  0  0  0  0  0  0  0
   10.9652   -6.1757    0.0000 C   0  0  0  0  0  0  0  0  0  0  0  0
   11.3523   -7.5512    0.0000 C   0  0  0  0  0  0  0  0  0  0  0  0
  1  2  1  0  0  0  0
  2  3  1  0  0  0  0
  1  4  1  0  0  0  0
  4  5  1  0  0  0  0
  5  6  1  0  0  0  0
  6  7  1  0  0  0  0
  7  8  2  0  0  0  0
  8  9  1  0  0  0  0
  9 10  1  0  0  0  0
 10 11  1  0  0  0  0
 11 12  1  0  0  0  0
 12 13  1  0  0  0  0
  9 13  1  0  0  0  0
 13 14  1  1  0  0  0
 13 15  1  0  0  0  0
 15 16  1  0  0  0  0
 16 17  1  0  0  0  0
  8 17  1  0  0  0  0
 17 18  1  0  0  0  0
  3 18  1  0  0  0  0
  5 18  1  0  0  0  0
 18 19  1  1  0  0  0
  9 20  1  6  0  0  0
  1 21  1  1  0  0  0
 12 22  1  0  0  0  0
  5 23  1  6  0  0  0
 17 24  1  6  0  0  0
 12 25  1  6  0  0  0
 22 26  1  6  0  0  0
 22 27  1  0  0  0  0
 27 28  2  0  0  0  0
 28 29  1  0  0  0  0
 29 30  1  1  0  0  0
 29 31  1  0  0  0  0
 31 32  1  0  0  0  0
 31 33  1  0  0  0  0
 30 34  1  0  0  0  0
M  END
>  <cdx:fragmentId>
7524

$$$$
