98361.cdx
  Mrv1902 05222410252D          

 11 12  0  0  0  0            999 V2000
    7.4800   -7.7550    0.0000 C   0  0  0  0  0  0  0  0  0  0  0  0
    6.4003   -7.7397    0.0000 C   0  0  0  0  0  0  0  0  0  0  0  0
    5.7750   -8.2775    0.0000 C   0  0  0  0  0  0  0  0  0  0  0  0
    6.2975   -8.9650    0.0000 C   0  0  0  0  0  0  0  0  0  0  0  0
    7.2325   -8.6350    0.0000 C   0  0  0  0  0  0  0  0  0  0  0  0
    8.0575   -9.0475    0.0000 C   0  0  0  0  0  0  0  0  0  0  0  0
    8.6075   -8.3875    0.0000 C   0  0  0  0  0  0  0  0  0  0  0  0
    8.1950   -7.7825    0.0000 C   0  0  0  0  0  0  0  0  0  0  0  0
    6.9025   -6.7155    0.0000 C   0  0  0  0  0  0  0  0  0  0  0  0
    6.0050   -7.0156    0.0000 O   0  0  0  0  0  0  0  0  0  0  0  0
    8.2710   -9.8444    0.0000 O   0  0  0  0  0  0  0  0  0  0  0  0
  1  2  1  0  0  0  0
  2  3  1  0  0  0  0
  3  4  1  0  0  0  0
  4  5  1  0  0  0  0
  5  6  1  0  0  0  0
  6  7  1  0  0  0  0
  7  8  1  0  0  0  0
  1  8  1  0  0  0  0
  1  9  1  0  0  0  0
  9  5  1  0  0  0  0
  2 10  2  0  0  0  0
  6 11  2  0  0  0  0
M  END
>  <cdx:fragmentId>
5

$$$$
