98364.cdx
  Mrv1902 05222410232D          

 13 15  0  0  0  0            999 V2000
    5.2987   -7.9612    0.0000 C   0  0  0  0  0  0  0  0  0  0  0  0
    5.2987   -8.7862    0.0000 C   0  0  0  0  0  0  0  0  0  0  0  0
    6.0131   -9.1987    0.0000 C   0  0  0  0  0  0  0  0  0  0  0  0
    6.7276   -8.7862    0.0000 C   0  0  0  0  0  0  0  0  0  0  0  0
    6.7276   -7.9612    0.0000 C   0  0  0  0  0  0  0  0  0  0  0  0
    6.0131   -7.5488    0.0000 C   0  0  0  0  0  0  0  0  0  0  0  0
    7.4421   -9.1987    0.0000 C   0  0  0  0  0  0  0  0  0  0  0  0
    6.7276   -7.1362    0.0000 C   0  0  0  0  0  0  0  0  0  0  0  0
    7.4421   -7.5488    0.0000 C   0  0  0  0  0  0  0  0  0  0  0  0
    8.1566   -7.9612    0.0000 C   0  0  0  0  0  0  0  0  0  0  0  0
    8.8710   -7.5488    0.0000 C   0  0  0  0  0  0  0  0  0  0  0  0
    9.5855   -7.9612    0.0000 O   0  0  0  0  0  0  0  0  0  0  0  0
    5.6419   -8.3880    0.0000 C   0  0  0  0  0  0  0  0  0  0  0  0
  1  2  1  0  0  0  0
  2  3  1  0  0  0  0
  3  4  1  0  0  0  0
  4  5  1  0  0  0  0
  5  6  1  0  0  0  0
  6  1  1  0  0  0  0
  4  7  1  0  0  0  0
  5  8  1  0  0  0  0
  5  9  1  0  0  0  0
  9 10  1  0  0  0  0
 10 11  1  0  0  0  0
 11 12  2  0  0  0  0
  2  4  1  0  0  0  0
  3 13  1  0  0  0  0
 13  6  1  0  0  0  0
M  END
>  <cdx:fragmentId>
5

$$$$
