98362.cdx
  Mrv1902 05222410242D          

 13 14  0  0  0  0            999 V2000
    7.9069   -7.6768    0.0000 C   0  0  0  0  0  0  0  0  0  0  0  0
    8.6231   -8.0862    0.0000 C   0  0  0  0  0  0  0  0  0  0  0  0
    8.6265   -8.9112    0.0000 C   0  0  0  0  0  0  0  0  0  0  0  0
    7.9138   -9.3268    0.0000 C   0  0  0  0  0  0  0  0  0  0  0  0
    7.1976   -8.9173    0.0000 C   0  0  0  0  0  0  0  0  0  0  0  0
    6.4849   -9.3328    0.0000 C   0  0  0  0  0  0  0  0  0  0  0  0
    5.7687   -8.9233    0.0000 C   0  0  0  0  0  0  0  0  0  0  0  0
    5.7652   -8.0983    0.0000 C   0  0  0  0  0  0  0  0  0  0  0  0
    6.4779   -7.6828    0.0000 C   0  0  0  0  0  0  0  0  0  0  0  0
    7.1941   -8.0923    0.0000 C   0  0  0  0  0  0  0  0  0  0  0  0
    7.9034   -6.8518    0.0000 O   0  0  0  0  0  0  0  0  0  0  0  0
    6.4744   -6.8578    0.0000 C   0  0  0  0  0  0  0  0  0  0  0  0
    6.4884  -10.1578    0.0000 C   0  0  0  0  0  0  0  0  0  0  0  0
  1  2  1  0  0  0  0
  2  3  1  0  0  0  0
  3  4  1  0  0  0  0
  4  5  1  0  0  0  0
  5  6  1  0  0  0  0
  6  7  2  0  0  0  0
  7  8  1  0  0  0  0
  8  9  2  0  0  0  0
  9 10  1  0  0  0  0
  1 10  1  0  0  0  0
  5 10  2  0  0  0  0
  1 11  1  0  0  0  0
  9 12  1  0  0  0  0
  6 13  1  0  0  0  0
M  END
>  <cdx:fragmentId>
5

$$$$
