98372.cdx
  Mrv1902 05222410242D          

 25 25  0  0  0  0            999 V2000
    4.5831   -7.5075    0.0000 C   0  0  0  0  0  0  0  0  0  0  0  0
    4.5831   -8.3325    0.0000 C   0  0  0  0  0  0  0  0  0  0  0  0
    5.2976   -7.0950    0.0000 C   0  0  0  0  0  0  0  0  0  0  0  0
    5.2976   -6.2700    0.0000 C   0  0  0  0  0  0  0  0  0  0  0  0
    6.0121   -7.5075    0.0000 C   0  0  0  0  0  0  0  0  0  0  0  0
    6.7266   -7.0950    0.0000 C   0  0  0  0  0  0  0  0  0  0  0  0
   10.2989   -7.5143    0.0000 C   0  0  0  0  0  0  0  0  0  0  0  0
    5.2976   -8.7450    0.0000 C   0  0  0  0  0  0  0  0  0  0  0  0
    5.2976   -9.5700    0.0000 C   0  0  0  0  0  0  0  0  0  0  0  0
    6.0121   -9.9825    0.0000 C   0  0  0  0  0  0  0  0  0  0  0  0
    4.5831   -9.9825    0.0000 C   0  0  0  0  0  0  0  0  0  0  0  0
    3.8687   -9.5700    0.0000 O   0  0  0  0  0  0  0  0  0  0  0  0
    6.7266   -9.5700    0.0000 O   0  0  0  0  0  0  0  0  0  0  0  0
   10.2969   -8.3393    0.0000 O   0  0  0  0  0  0  0  0  0  0  0  0
   11.0144   -7.1035    0.0000 O   0  0  0  0  0  0  0  0  0  0  0  0
    7.4450   -5.8575    0.0000 O   0  0  0  0  0  0  0  0  0  0  0  0
   10.3028   -5.8643    0.0000 O   0  0  0  0  0  0  0  0  0  0  0  0
    8.8759   -5.0359    0.0000 O   0  0  0  0  0  0  0  0  0  0  0  0
    8.8700   -7.5109    0.0000 O   0  0  0  0  0  0  0  0  0  0  0  0
    9.5854   -7.1001    0.0000 C   0  0  1  0  0  0  0  0  0  0  0  0
    9.5874   -6.2751    0.0000 C   0  0  2  0  0  0  0  0  0  0  0  0
    8.8739   -5.8609    0.0000 C   0  0  1  0  0  0  0  0  0  0  0  0
    8.1585   -6.2717    0.0000 C   0  0  2  0  0  0  0  0  0  0  0  0
    8.1565   -7.0967    0.0000 C   0  0  2  0  0  0  0  0  0  0  0  0
    7.4410   -7.5075    0.0000 O   0  0  0  0  0  0  0  0  0  0  0  0
  1  2  1  0  0  0  0
  1  3  1  0  0  0  0
  3  4  1  0  0  0  0
  3  5  1  0  0  0  0
  5  6  1  0  0  0  0
  6 25  1  0  0  0  0
  2  8  1  0  0  0  0
  8  9  1  0  0  0  0
  9 10  1  0  0  0  0
  9 11  1  0  0  0  0
 11 12  1  0  0  0  0
 10 13  1  0  0  0  0
  7 14  2  0  0  0  0
 23 16  1  6  0  0  0
 20  7  1  1  0  0  0
  7 15  1  0  0  0  0
 21 17  1  6  0  0  0
 22 18  1  1  0  0  0
 19 24  1  0  0  0  0
 20 19  1  0  0  0  0
 21 20  1  0  0  0  0
 22 21  1  0  0  0  0
 23 22  1  0  0  0  0
 24 23  1  0  0  0  0
 24 25  1  1  0  0  0
M  END
>  <cdx:fragmentId>
3

$$$$
