98376.cdx
  Mrv1902 05222410242D          

 32 37  0  0  0  0            999 V2000
    6.0679   -7.5180    0.0000 C   0  0  0  0  0  0  0  0  0  0  0  0
    5.3575   -7.0985    0.0000 C   0  0  0  0  0  0  0  0  0  0  0  0
    4.5704   -7.3457    0.0000 O   0  0  0  0  0  0  0  0  0  0  0  0
    4.0920   -6.6736    0.0000 C   0  0  0  0  0  0  0  0  0  0  0  0
    4.5835   -6.0109    0.0000 O   0  0  0  0  0  0  0  0  0  0  0  0
    5.3656   -6.2735    0.0000 C   0  0  0  0  0  0  0  0  0  0  0  0
    6.0841   -5.8681    0.0000 C   0  0  0  0  0  0  0  0  0  0  0  0
    6.7944   -6.2876    0.0000 C   0  0  0  0  0  0  0  0  0  0  0  0
    7.6113   -6.1718    0.0000 C   0  0  0  0  0  0  0  0  0  0  0  0
    8.0168   -6.8903    0.0000 N   0  0  0  0  0  0  0  0  0  0  0  0
    7.4967   -7.5320    0.0000 C   0  0  0  0  0  0  0  0  0  0  0  0
    7.4887   -8.3570    0.0000 C   0  0  0  0  0  0  0  0  0  0  0  0
    6.7702   -8.7624    0.0000 C   0  0  0  0  0  0  0  0  0  0  0  0
    6.7621   -9.5874    0.0000 C   0  0  0  0  0  0  0  0  0  0  0  0
    6.0436   -9.9929    0.0000 C   0  0  0  0  0  0  0  0  0  0  0  0
    5.3332   -9.5734    0.0000 C   0  0  0  0  0  0  0  0  0  0  0  0
    5.3413   -8.7484    0.0000 C   0  0  0  0  0  0  0  0  0  0  0  0
    6.0598   -8.3430    0.0000 C   0  0  0  0  0  0  0  0  0  0  0  0
    6.7864   -7.1125    0.0000 C   0  0  0  0  0  0  0  0  0  0  0  0
    8.0308   -5.4615    0.0000 O   0  0  0  0  0  0  0  0  0  0  0  0
    9.4393   -8.5056    0.0000 C   0  0  2  0  0  0  0  0  0  0  0  0
   10.1542   -8.0939    0.0000 C   0  0  2  0  0  0  0  0  0  0  0  0
   10.1551   -7.2689    0.0000 C   0  0  1  0  0  0  0  0  0  0  0  0
    9.4411   -6.8556    0.0000 C   0  0  2  0  0  0  0  0  0  0  0  0
    8.7262   -7.2673    0.0000 C   0  0  1  0  0  0  0  0  0  0  0  0
    8.7253   -8.0923    0.0000 O   0  0  0  0  0  0  0  0  0  0  0  0
    9.4384   -9.3306    0.0000 C   0  0  0  0  0  0  0  0  0  0  0  0
   10.8700   -6.8571    0.0000 O   0  0  0  0  0  0  0  0  0  0  0  0
   10.8682   -8.5071    0.0000 O   0  0  0  0  0  0  0  0  0  0  0  0
    9.4420   -6.0306    0.0000 O   0  0  0  0  0  0  0  0  0  0  0  0
   10.1524   -9.7439    0.0000 O   0  0  0  0  0  0  0  0  0  0  0  0
    7.4725  -10.0069    0.0000 O   0  0  0  0  0  0  0  0  0  0  0  0
  1  2  1  0  0  0  0
  2  3  1  0  0  0  0
  3  4  1  0  0  0  0
  4  5  1  0  0  0  0
  5  6  1  0  0  0  0
  6  7  1  0  0  0  0
  7  8  2  0  0  0  0
  8  9  1  0  0  0  0
  9 10  1  0  0  0  0
 10 11  1  0  0  0  0
 11 12  1  0  0  0  0
 12 13  2  0  0  0  0
 13 14  1  0  0  0  0
 14 15  2  0  0  0  0
 15 16  1  0  0  0  0
 16 17  2  0  0  0  0
 17 18  1  0  0  0  0
  1 18  2  0  0  0  0
  1 19  1  0  0  0  0
 19 11  2  0  0  0  0
 13 18  1  0  0  0  0
  2  6  2  0  0  0  0
  8 19  1  0  0  0  0
  9 20  2  0  0  0  0
 21 22  1  0  0  0  0
 22 23  1  0  0  0  0
 23 24  1  0  0  0  0
 24 25  1  0  0  0  0
 25 26  1  0  0  0  0
 26 21  1  0  0  0  0
 21 27  1  1  0  0  0
 23 28  1  1  0  0  0
 22 29  1  6  0  0  0
 24 30  1  6  0  0  0
 27 31  1  0  0  0  0
 25 10  1  1  0  0  0
 14 32  1  0  0  0  0
M  END
>  <cdx:fragmentId>
5

$$$$
