98377.cdx
  Mrv1902 05222410252D          

 39 44  0  0  0  0            999 V2000
    3.4837   -9.4462    0.0000 C   0  0  2  0  0  0  0  0  0  0  0  0
    3.4837  -10.2713    0.0000 C   0  0  2  0  0  0  0  0  0  0  0  0
    4.1981  -10.6837    0.0000 C   0  0  0  0  0  0  0  0  0  0  0  0
    4.9126  -10.2713    0.0000 C   0  0  2  0  0  0  0  0  0  0  0  0
    4.9126   -9.4462    0.0000 C   0  0  2  0  0  0  0  0  0  0  0  0
    4.1981   -9.0337    0.0000 C   0  0  0  0  0  0  0  0  0  0  0  0
    5.6271  -10.6837    0.0000 C   0  0  0  0  0  0  0  0  0  0  0  0
    6.3416  -10.2713    0.0000 C   0  0  0  0  0  0  0  0  0  0  0  0
    6.3416   -9.4462    0.0000 C   0  0  2  0  0  0  0  0  0  0  0  0
    5.6271   -9.0337    0.0000 C   0  0  2  0  0  0  0  0  0  0  0  0
    6.9547   -8.8942    0.0000 C   0  0  1  0  0  0  0  0  0  0  0  0
    6.6191   -8.1405    0.0000 C   0  0  0  0  0  0  0  0  0  0  0  0
    5.7986   -8.2268    0.0000 C   0  0  0  0  0  0  0  0  0  0  0  0
    7.7751   -8.9805    0.0000 C   0  0  1  0  0  0  0  0  0  0  0  0
    8.2601   -8.3130    0.0000 C   0  0  0  0  0  0  0  0  0  0  0  0
    7.9245   -7.5593    0.0000 C   0  0  1  0  0  0  0  0  0  0  0  0
    7.1040   -7.4731    0.0000 C   0  0  0  0  0  0  0  0  0  0  0  0
    8.7495   -7.5593    0.0000 O   0  0  0  0  0  0  0  0  0  0  0  0
    9.0044   -6.7747    0.0000 C   0  0  2  0  0  0  0  0  0  0  0  0
    8.3370   -6.2898    0.0000 C   0  0  2  0  0  0  0  0  0  0  0  0
    7.6696   -6.7747    0.0000 C   0  0  1  0  0  0  0  0  0  0  0  0
    9.7581   -6.4392    0.0000 C   0  0  0  0  0  0  0  0  0  0  0  0
    9.8444   -5.6187    0.0000 C   0  0  1  0  0  0  0  0  0  0  0  0
    9.1769   -5.1338    0.0000 C   0  0  0  0  0  0  0  0  0  0  0  0
    8.4232   -5.4693    0.0000 N   0  0  0  0  0  0  0  0  0  0  0  0
    2.7692   -9.0337    0.0000 O   0  0  0  0  0  0  0  0  0  0  0  0
    4.9126   -8.6212    0.0000 C   0  0  0  0  0  0  0  0  0  0  0  0
    4.9126  -11.0962    0.0000 H   0  0  0  0  0  0  0  0  0  0  0  0
    6.9249  -10.0351    0.0000 H   0  0  0  0  0  0  0  0  0  0  0  0
    8.1107   -9.7341    0.0000 O   0  0  0  0  0  0  0  0  0  0  0  0
    7.7536   -5.7064    0.0000 H   0  0  0  0  0  0  0  0  0  0  0  0
    9.6175   -7.3268    0.0000 H   0  0  0  0  0  0  0  0  0  0  0  0
   10.5980   -5.2831    0.0000 C   0  0  0  0  0  0  0  0  0  0  0  0
    2.7692  -10.6837    0.0000 O   0  0  0  0  0  0  0  0  0  0  0  0
    5.6271   -9.8588    0.0000 H   0  0  0  0  0  0  0  0  0  0  0  0
    7.3672   -9.6087    0.0000 H   0  0  0  0  0  0  0  0  0  0  0  0
    6.8727   -6.5612    0.0000 C   0  0  0  0  0  0  0  0  0  0  0  0
    5.6271  -11.5087    0.0000 O   0  0  0  0  0  0  0  0  0  0  0  0
    6.6915   -6.7586    0.0000 C   0  0  0  0  0  0  0  0  0  0  0  0
  1  2  1  0  0  0  0
  2  3  1  0  0  0  0
  3  4  1  0  0  0  0
  4  5  1  0  0  0  0
  5  6  1  0  0  0  0
  6  1  1  0  0  0  0
  4  7  1  0  0  0  0
  7  8  1  0  0  0  0
  8  9  1  0  0  0  0
  9 10  1  0  0  0  0
 10  5  1  0  0  0  0
  9 11  1  0  0  0  0
 11 12  1  0  0  0  0
 12 13  1  0  0  0  0
 13 10  1  0  0  0  0
 11 14  1  0  0  0  0
 14 15  1  0  0  0  0
 16 15  1  6  0  0  0
 16 17  1  1  0  0  0
 17 12  2  0  0  0  0
 16 18  1  0  0  0  0
 18 19  1  0  0  0  0
 19 20  1  0  0  0  0
 20 21  1  0  0  0  0
 21 16  1  0  0  0  0
 19 22  1  0  0  0  0
 22 23  1  0  0  0  0
 23 24  1  0  0  0  0
 24 25  1  0  0  0  0
 25 20  1  0  0  0  0
  1 26  1  1  0  0  0
  5 27  1  1  0  0  0
  4 28  1  1  0  0  0
  9 29  1  1  0  0  0
 14 30  1  1  0  0  0
 20 31  1  1  0  0  0
 19 32  1  1  0  0  0
 23 33  1  1  0  0  0
  2 34  1  6  0  0  0
 10 35  1  6  0  0  0
 11 36  1  6  0  0  0
 21 37  1  6  0  0  0
  7 38  2  0  0  0  0
 17 39  1  0  0  0  0
M  END
>  <cdx:fragmentId>
5

$$$$
