98371.cdx
  Mrv1902 05222410242D          

 31 34  0  0  0  0            999 V2000
    3.9372  -10.7657    0.0000 C   0  0  0  0  0  0  0  0  0  0  0  0
    3.9372   -9.9407    0.0000 C   0  0  0  0  0  0  0  0  0  0  0  0
    4.6516   -9.5282    0.0000 C   0  0  0  0  0  0  0  0  0  0  0  0
    4.6516  -11.1782    0.0000 C   0  0  0  0  0  0  0  0  0  0  0  0
    5.3661  -10.7657    0.0000 C   0  0  0  0  0  0  0  0  0  0  0  0
    6.0806  -11.1782    0.0000 C   0  0  0  0  0  0  0  0  0  0  0  0
    6.7951  -10.7657    0.0000 C   0  0  0  0  0  0  0  0  0  0  0  0
    6.7951   -9.9407    0.0000 C   0  0  0  0  0  0  0  0  0  0  0  0
    7.5095   -9.5282    0.0000 C   0  0  2  0  0  0  0  0  0  0  0  0
    8.2941   -9.7831    0.0000 C   0  0  0  0  0  0  0  0  0  0  0  0
    8.7791   -9.1157    0.0000 C   0  0  0  0  0  0  0  0  0  0  0  0
    8.2941   -8.4482    0.0000 C   0  0  2  0  0  0  0  0  0  0  0  0
    8.5491   -7.6636    0.0000 C   0  0  1  0  0  0  0  0  0  0  0  0
    9.3561   -7.4921    0.0000 C   0  0  0  0  0  0  0  0  0  0  0  0
    9.6110   -6.7074    0.0000 C   0  0  0  0  0  0  0  0  0  0  0  0
   10.4180   -6.5359    0.0000 C   0  0  0  0  0  0  0  0  0  0  0  0
    7.9971   -7.0505    0.0000 C   0  0  0  0  0  0  0  0  0  0  0  0
    7.5095   -8.7032    0.0000 C   0  0  2  0  0  0  0  0  0  0  0  0
    7.5095   -7.8782    0.0000 C   0  0  0  0  0  0  0  0  0  0  0  0
    6.7951   -8.2907    0.0000 C   0  0  0  0  0  0  0  0  0  0  0  0
    6.0806   -8.7032    0.0000 C   0  0  0  0  0  0  0  0  0  0  0  0
    6.0806   -9.5282    0.0000 C   0  0  0  0  0  0  0  0  0  0  0  0
    5.3661   -9.9407    0.0000 C   0  0  1  0  0  0  0  0  0  0  0  0
    5.3661   -9.1157    0.0000 C   0  0  0  0  0  0  0  0  0  0  0  0
    8.5491  -10.5677    0.0000 O   0  0  0  0  0  0  0  0  0  0  0  0
    5.3661   -8.2907    0.0000 O   0  0  0  0  0  0  0  0  0  0  0  0
    3.2227  -11.1782    0.0000 O   0  0  0  0  0  0  0  0  0  0  0  0
    7.5095  -10.3532    0.0000 H   0  0  0  0  0  0  0  0  0  0  0  0
    9.0910   -8.2347    0.0000 H   0  0  0  0  0  0  0  0  0  0  0  0
   10.6729   -5.7513    0.0000 O   0  0  0  0  0  0  0  0  0  0  0  0
   10.9700   -7.1490    0.0000 O   0  0  0  0  0  0  0  0  0  0  0  0
  1  2  1  0  0  0  0
  2  3  1  0  0  0  0
  1  4  1  0  0  0  0
  4  5  1  0  0  0  0
  5  6  1  0  0  0  0
  6  7  1  0  0  0  0
  7  8  1  0  0  0  0
  8  9  1  0  0  0  0
  9 10  1  0  0  0  0
 10 11  1  0  0  0  0
 12 11  1  0  0  0  0
 12 13  1  0  0  0  0
 13 14  1  0  0  0  0
 14 15  1  0  0  0  0
 15 16  1  0  0  0  0
 13 17  1  6  0  0  0
 12 18  1  0  0  0  0
  9 18  1  0  0  0  0
 18 19  1  1  0  0  0
 18 20  1  0  0  0  0
 20 21  1  0  0  0  0
 21 22  1  0  0  0  0
  8 22  2  0  0  0  0
 22 23  1  0  0  0  0
  3 23  1  0  0  0  0
  5 23  1  0  0  0  0
 23 24  1  1  0  0  0
 10 25  2  0  0  0  0
 21 26  2  0  0  0  0
  1 27  2  0  0  0  0
  9 28  1  6  0  0  0
 12 29  1  6  0  0  0
 16 30  1  0  0  0  0
 16 31  2  0  0  0  0
M  END
>  <cdx:fragmentId>
5

$$$$
