98383.cdx
  Mrv1902 05222410222D          

 20 22  0  0  0  0            999 V2000
    4.0199   -7.0812    0.0000 C   0  0  0  0  0  0  0  0  0  0  0  0
    4.0199   -7.9063    0.0000 C   0  0  0  0  0  0  0  0  0  0  0  0
    4.7344   -8.3187    0.0000 C   0  0  0  0  0  0  0  0  0  0  0  0
    5.4489   -7.9063    0.0000 C   0  0  1  0  0  0  0  0  0  0  0  0
    5.4489   -7.0812    0.0000 C   0  0  2  0  0  0  0  0  0  0  0  0
    4.7344   -6.6688    0.0000 C   0  0  0  0  0  0  0  0  0  0  0  0
    6.1633   -8.3187    0.0000 C   0  0  0  0  0  0  0  0  0  0  0  0
    6.8778   -7.9063    0.0000 C   0  0  0  0  0  0  0  0  0  0  0  0
    6.8778   -7.0812    0.0000 C   0  0  0  0  0  0  0  0  0  0  0  0
    6.1633   -6.6688    0.0000 C   0  0  0  0  0  0  0  0  0  0  0  0
    7.6624   -8.1612    0.0000 C   0  0  0  0  0  0  0  0  0  0  0  0
    8.1474   -7.4937    0.0000 C   0  0  0  0  0  0  0  0  0  0  0  0
    7.6624   -6.8263    0.0000 O   0  0  0  0  0  0  0  0  0  0  0  0
    3.3055   -8.3187    0.0000 O   0  0  0  0  0  0  0  0  0  0  0  0
    4.7344   -9.1438    0.0000 C   0  0  0  0  0  0  0  0  0  0  0  0
    6.9640   -6.2608    0.0000 O   0  0  0  0  0  0  0  0  0  0  0  0
    7.9174   -8.9458    0.0000 C   0  0  0  0  0  0  0  0  0  0  0  0
    8.9724   -7.4937    0.0000 O   0  0  0  0  0  0  0  0  0  0  0  0
    5.4489   -6.2563    0.0000 C   0  0  0  0  0  0  0  0  0  0  0  0
    5.4489   -8.7313    0.0000 H   0  0  0  0  0  0  0  0  0  0  0  0
  1  2  1  0  0  0  0
  2  3  1  0  0  0  0
  3  4  1  0  0  0  0
  4  5  1  0  0  0  0
  5  6  1  0  0  0  0
  6  1  1  0  0  0  0
  4  7  1  0  0  0  0
  7  8  1  0  0  0  0
  8  9  1  0  0  0  0
  9 10  1  0  0  0  0
 10  5  1  0  0  0  0
  8 11  1  0  0  0  0
 11 12  1  0  0  0  0
 12 13  1  0  0  0  0
 13  9  1  0  0  0  0
  2 14  1  0  0  0  0
  3 15  2  0  0  0  0
  9 16  1  0  0  0  0
 11 17  1  0  0  0  0
 12 18  2  0  0  0  0
  5 19  1  1  0  0  0
  4 20  1  6  0  0  0
M  END
>  <cdx:fragmentId>
5

$$$$
