98389.cdx
  Mrv1902 05222410242D          

 40 43  0  0  0  0            999 V2000
   10.3548   -6.5526    0.0000 C   0  0  0  0  0  0  0  0  0  0  0  0
   10.0999   -7.3373    0.0000 C   0  0  0  0  0  0  0  0  0  0  0  0
    9.2929   -7.5088    0.0000 C   0  0  0  0  0  0  0  0  0  0  0  0
    9.0380   -8.2934    0.0000 C   0  0  0  0  0  0  0  0  0  0  0  0
    8.2310   -8.4649    0.0000 C   0  0  1  0  0  0  0  0  0  0  0  0
    7.6789   -7.8519    0.0000 C   0  0  0  0  0  0  0  0  0  0  0  0
   11.4167   -5.5965    0.0000 O   0  0  0  0  0  0  0  0  0  0  0  0
    4.3335  -10.3295    0.0000 C   0  0  0  0  0  0  0  0  0  0  0  0
    3.6191  -10.7420    0.0000 C   0  0  0  0  0  0  0  0  0  0  0  0
    3.6191  -11.5670    0.0000 C   0  0  0  0  0  0  0  0  0  0  0  0
    4.3335  -11.9795    0.0000 C   0  0  0  0  0  0  0  0  0  0  0  0
    5.0480  -11.5670    0.0000 C   0  0  2  0  0  0  0  0  0  0  0  0
    5.7625  -11.9795    0.0000 C   0  0  0  0  0  0  0  0  0  0  0  0
    6.4770  -11.5670    0.0000 C   0  0  0  0  0  0  0  0  0  0  0  0
    6.4770  -10.7420    0.0000 C   0  0  0  0  0  0  0  0  0  0  0  0
    7.1914  -10.3295    0.0000 C   0  0  2  0  0  0  0  0  0  0  0  0
    7.9760  -10.5844    0.0000 C   0  0  0  0  0  0  0  0  0  0  0  0
    8.4610   -9.9170    0.0000 C   0  0  0  0  0  0  0  0  0  0  0  0
    7.9760   -9.2496    0.0000 C   0  0  1  0  0  0  0  0  0  0  0  0
    7.1914   -9.5045    0.0000 C   0  0  1  0  0  0  0  0  0  0  0  0
    6.4770   -9.0920    0.0000 C   0  0  1  0  0  0  0  0  0  0  0  0
    5.7625   -9.5045    0.0000 C   0  0  0  0  0  0  0  0  0  0  0  0
    5.7625  -10.3295    0.0000 C   0  0  0  0  0  0  0  0  0  0  0  0
    5.0480  -10.7420    0.0000 C   0  0  1  0  0  0  0  0  0  0  0  0
    7.1914  -11.9795    0.0000 O   0  0  0  0  0  0  0  0  0  0  0  0
    2.9046  -11.9795    0.0000 O   0  0  0  0  0  0  0  0  0  0  0  0
    7.1914  -11.1545    0.0000 C   0  0  0  0  0  0  0  0  0  0  0  0
    7.1914   -8.6795    0.0000 C   0  0  0  0  0  0  0  0  0  0  0  0
    5.0480   -9.9170    0.0000 C   0  0  0  0  0  0  0  0  0  0  0  0
    4.7460  -12.6940    0.0000 C   0  0  0  0  0  0  0  0  0  0  0  0
    3.9210  -12.6940    0.0000 C   0  0  0  0  0  0  0  0  0  0  0  0
    9.8028   -5.9396    0.0000 C   0  0  0  0  0  0  0  0  0  0  0  0
    5.0480  -12.3920    0.0000 H   0  0  0  0  0  0  0  0  0  0  0  0
   11.7138   -6.9942    0.0000 O   0  0  0  0  0  0  0  0  0  0  0  0
   11.1618   -6.3811    0.0000 C   0  0  0  0  0  0  0  0  0  0  0  0
    8.7607   -8.9946    0.0000 H   0  0  0  0  0  0  0  0  0  0  0  0
    6.4770   -8.2670    0.0000 O   0  0  0  0  0  0  0  0  0  0  0  0
    5.7625   -7.8545    0.0000 C   0  0  0  0  0  0  0  0  0  0  0  0
    5.7625   -7.0295    0.0000 O   0  0  0  0  0  0  0  0  0  0  0  0
    5.0480   -8.2670    0.0000 C   0  0  0  0  0  0  0  0  0  0  0  0
 35  7  1  0  0  0  0
 35 34  2  0  0  0  0
 35  1  1  0  0  0  0
  1  2  2  0  0  0  0
  2  3  1  0  0  0  0
  3  4  1  0  0  0  0
  4  5  1  0  0  0  0
  5  6  1  6  0  0  0
  8  9  1  0  0  0  0
  9 10  1  0  0  0  0
 10 11  1  0  0  0  0
 11 12  1  0  0  0  0
 12 13  1  0  0  0  0
 13 14  1  0  0  0  0
 14 15  1  0  0  0  0
 15 16  1  0  0  0  0
 16 17  1  0  0  0  0
 17 18  1  0  0  0  0
 19 18  1  0  0  0  0
 19 20  1  0  0  0  0
 16 20  1  0  0  0  0
 20 21  1  0  0  0  0
 21 22  1  0  0  0  0
 22 23  1  0  0  0  0
 15 23  2  0  0  0  0
 23 24  1  0  0  0  0
 12 24  1  0  0  0  0
  8 24  1  0  0  0  0
 14 25  2  0  0  0  0
 10 26  2  0  0  0  0
 16 27  1  6  0  0  0
 20 28  1  1  0  0  0
 24 29  1  1  0  0  0
 11 30  1  0  0  0  0
 11 31  1  0  0  0  0
  5 19  1  0  0  0  0
  1 32  1  0  0  0  0
 12 33  1  6  0  0  0
 19 36  1  6  0  0  0
 21 37  1  1  0  0  0
 37 38  1  0  0  0  0
 38 39  2  0  0  0  0
 38 40  1  0  0  0  0
M  END
>  <cdx:fragmentId>
81279

$$$$
