98381.cdx
  Mrv1902 05222410222D          

 24 26  0  0  0  0            999 V2000
   11.1948   -6.8289    0.0000 O   0  0  0  0  0  0  0  0  0  0  0  0
    9.0715   -5.5668    0.0000 C   0  0  0  0  0  0  0  0  0  0  0  0
    9.7802   -5.9892    0.0000 O   0  0  0  0  0  0  0  0  0  0  0  0
    9.7688   -8.4639    0.0000 C   0  0  0  0  0  0  0  0  0  0  0  0
   10.4775   -8.0614    0.0000 C   0  0  0  0  0  0  0  0  0  0  0  0
   10.4775   -7.2365    0.0000 C   0  0  0  0  0  0  0  0  0  0  0  0
    9.7688   -6.8141    0.0000 C   0  0  0  0  0  0  0  0  0  0  0  0
    9.0487   -7.2167    0.0000 C   0  0  0  0  0  0  0  0  0  0  0  0
    9.0372   -8.0416    0.0000 C   0  0  0  0  0  0  0  0  0  0  0  0
    8.3190   -8.4475    0.0000 C   0  0  0  0  0  0  0  0  0  0  0  0
    7.6084   -8.0284    0.0000 C   0  0  0  0  0  0  0  0  0  0  0  0
    3.3004   -9.6808    0.0000 O   0  0  0  0  0  0  0  0  0  0  0  0
    4.7293   -7.2058    0.0000 O   0  0  0  0  0  0  0  0  0  0  0  0
    6.1583   -8.0308    0.0000 O   0  0  0  0  0  0  0  0  0  0  0  0
    5.4438   -8.4433    0.0000 C   0  0  0  0  0  0  0  0  0  0  0  0
    4.7293   -8.0308    0.0000 C   0  0  0  0  0  0  0  0  0  0  0  0
    4.0148   -8.4433    0.0000 C   0  0  0  0  0  0  0  0  0  0  0  0
    4.0148   -9.2683    0.0000 C   0  0  0  0  0  0  0  0  0  0  0  0
    4.7293   -9.6808    0.0000 C   0  0  0  0  0  0  0  0  0  0  0  0
    5.4438   -9.2683    0.0000 C   0  0  0  0  0  0  0  0  0  0  0  0
    6.1583  -10.5058    0.0000 O   0  0  0  0  0  0  0  0  0  0  0  0
    6.1583   -9.6808    0.0000 C   0  0  0  0  0  0  0  0  0  0  0  0
    6.8727   -9.2683    0.0000 C   0  0  0  0  0  0  0  0  0  0  0  0
    6.8727   -8.4433    0.0000 C   0  0  0  0  0  0  0  0  0  0  0  0
  6  1  1  0  0  0  0
  3  2  1  0  0  0  0
  7  3  1  0  0  0  0
  4  9  1  0  0  0  0
  5  4  2  0  0  0  0
  6  5  1  0  0  0  0
  7  6  2  0  0  0  0
  8  7  1  0  0  0  0
  9  8  2  0  0  0  0
 11 24  1  0  0  0  0
 11 10  1  0  0  0  0
 10  9  1  0  0  0  0
 18 12  1  0  0  0  0
 16 13  1  0  0  0  0
 24 14  1  0  0  0  0
 15 14  1  0  0  0  0
 20 15  2  0  0  0  0
 16 15  1  0  0  0  0
 17 16  2  0  0  0  0
 18 17  1  0  0  0  0
 19 18  2  0  0  0  0
 20 19  1  0  0  0  0
 22 20  1  0  0  0  0
 22 21  2  0  0  0  0
 23 22  1  0  0  0  0
 24 23  2  0  0  0  0
M  END
>  <cdx:fragmentId>
5

$$$$
