98382.cdx
  Mrv1902 05222410232D          

 38 39  0  0  0  0            999 V2000
    2.5624   -7.0675    0.0000 C   0  0  0  0  0  0  0  0  0  0  0  0
    2.5624   -7.8925    0.0000 C   0  0  0  0  0  0  0  0  0  0  0  0
    3.2769   -8.3050    0.0000 C   0  0  0  0  0  0  0  0  0  0  0  0
    3.9914   -7.8925    0.0000 C   0  0  0  0  0  0  0  0  0  0  0  0
    3.9914   -7.0675    0.0000 C   0  0  0  0  0  0  0  0  0  0  0  0
    3.2769   -6.6550    0.0000 C   0  0  0  0  0  0  0  0  0  0  0  0
    5.4203   -7.0675    0.0000 C   0  0  0  0  0  0  0  0  0  0  0  0
    4.7058   -6.6550    0.0000 C   0  0  0  0  0  0  0  0  0  0  0  0
    6.8493   -7.8925    0.0000 C   0  0  0  0  0  0  0  0  0  0  0  0
    6.8493   -7.0675    0.0000 C   0  0  0  0  0  0  0  0  0  0  0  0
    6.1348   -6.6550    0.0000 C   0  0  0  0  0  0  0  0  0  0  0  0
    7.5637   -8.3050    0.0000 C   0  0  0  0  0  0  0  0  0  0  0  0
    8.2782   -7.0675    0.0000 C   0  0  0  0  0  0  0  0  0  0  0  0
    7.5637   -6.6550    0.0000 C   0  0  0  0  0  0  0  0  0  0  0  0
    9.7071   -7.8925    0.0000 C   0  0  0  0  0  0  0  0  0  0  0  0
    9.7071   -7.0675    0.0000 C   0  0  0  0  0  0  0  0  0  0  0  0
    8.9927   -6.6550    0.0000 C   0  0  0  0  0  0  0  0  0  0  0  0
    6.8493   -9.5425    0.0000 C   0  0  0  0  0  0  0  0  0  0  0  0
    7.5637   -9.1300    0.0000 C   0  0  0  0  0  0  0  0  0  0  0  0
    8.2782   -9.5425    0.0000 C   0  0  0  0  0  0  0  0  0  0  0  0
    8.9927   -9.1300    0.0000 C   0  0  0  0  0  0  0  0  0  0  0  0
    8.9927  -10.7800    0.0000 C   0  0  0  0  0  0  0  0  0  0  0  0
    9.7071  -10.3675    0.0000 C   0  0  0  0  0  0  0  0  0  0  0  0
    9.7071   -9.5425    0.0000 C   0  0  0  0  0  0  0  0  0  0  0  0
   10.4216  -10.7800    0.0000 C   0  0  0  0  0  0  0  0  0  0  0  0
    7.5637   -5.8300    0.0000 C   0  0  0  0  0  0  0  0  0  0  0  0
    6.1348   -5.8300    0.0000 O   0  0  0  0  0  0  0  0  0  0  0  0
    8.9927   -5.8300    0.0000 C   0  0  0  0  0  0  0  0  0  0  0  0
    8.2782   -5.4175    0.0000 C   0  0  0  0  0  0  0  0  0  0  0  0
    8.2782   -4.5925    0.0000 C   0  0  0  0  0  0  0  0  0  0  0  0
    7.5637   -4.1800    0.0000 C   0  0  0  0  0  0  0  0  0  0  0  0
   10.4216   -8.3050    0.0000 C   0  0  0  0  0  0  0  0  0  0  0  0
   11.1361   -7.8925    0.0000 C   0  0  0  0  0  0  0  0  0  0  0  0
   11.1361   -7.0675    0.0000 C   0  0  0  0  0  0  0  0  0  0  0  0
   10.4216   -6.6550    0.0000 C   0  0  0  0  0  0  0  0  0  0  0  0
   11.8506   -6.6550    0.0000 O   0  0  0  0  0  0  0  0  0  0  0  0
   11.8506   -8.3050    0.0000 O   0  0  0  0  0  0  0  0  0  0  0  0
   11.8506   -9.1300    0.0000 C   0  0  0  0  0  0  0  0  0  0  0  0
  1  2  2  0  0  0  0
  2  3  1  0  0  0  0
  3  4  2  0  0  0  0
  4  5  1  0  0  0  0
  5  6  2  0  0  0  0
  6  1  1  0  0  0  0
  7  8  1  0  0  0  0
  8  5  1  0  0  0  0
  9 10  1  0  0  0  0
 10 11  1  0  0  0  0
 11  7  1  0  0  0  0
  9 12  1  0  0  0  0
 13 14  1  0  0  0  0
 14 10  1  0  0  0  0
 15 16  2  0  0  0  0
 16 17  1  0  0  0  0
 17 13  1  0  0  0  0
 18 19  1  0  0  0  0
 19 12  2  0  0  0  0
 19 20  1  0  0  0  0
 20 21  1  0  0  0  0
 22 23  1  0  0  0  0
 23 24  2  0  0  0  0
 24 21  1  0  0  0  0
 25 23  1  0  0  0  0
 14 26  1  0  0  0  0
 27 11  2  0  0  0  0
 28 29  1  0  0  0  0
 29 26  1  0  0  0  0
 29 30  2  0  0  0  0
 30 31  1  0  0  0  0
 15 32  1  0  0  0  0
 32 33  2  0  0  0  0
 33 34  1  0  0  0  0
 34 35  2  0  0  0  0
 35 16  1  0  0  0  0
 34 36  1  0  0  0  0
 33 37  1  0  0  0  0
 37 38  1  0  0  0  0
M  END
>  <cdx:fragmentId>
5

$$$$
