98385.cdx
  Mrv1902 05222410212D          

 36 41  0  0  0  0            999 V2000
    4.0749   -9.2813    0.0000 C   0  0  0  0  0  0  0  0  0  0  0  0
    4.0749  -10.1063    0.0000 C   0  0  0  0  0  0  0  0  0  0  0  0
    4.7894  -10.5188    0.0000 C   0  0  0  0  0  0  0  0  0  0  0  0
    5.5039  -10.1063    0.0000 C   0  0  1  0  0  0  0  0  0  0  0  0
    5.5039   -9.2813    0.0000 C   0  0  2  0  0  0  0  0  0  0  0  0
    4.7894   -8.8688    0.0000 C   0  0  0  0  0  0  0  0  0  0  0  0
    6.2183  -10.5188    0.0000 C   0  0  0  0  0  0  0  0  0  0  0  0
    6.9328  -10.1063    0.0000 C   0  0  0  0  0  0  0  0  0  0  0  0
    6.9328   -9.2813    0.0000 C   0  0  0  0  0  0  0  0  0  0  0  0
    6.2183   -8.8688    0.0000 C   0  0  0  0  0  0  0  0  0  0  0  0
    7.7174  -10.3612    0.0000 C   0  0  0  0  0  0  0  0  0  0  0  0
    8.2024   -9.6937    0.0000 C   0  0  0  0  0  0  0  0  0  0  0  0
    7.7174   -9.0263    0.0000 O   0  0  0  0  0  0  0  0  0  0  0  0
    4.7894  -11.3438    0.0000 C   0  0  0  0  0  0  0  0  0  0  0  0
    7.9724  -11.1458    0.0000 C   0  0  0  0  0  0  0  0  0  0  0  0
    9.0274   -9.6937    0.0000 O   0  0  0  0  0  0  0  0  0  0  0  0
    5.5039   -8.4563    0.0000 C   0  0  0  0  0  0  0  0  0  0  0  0
    5.5039  -10.9313    0.0000 H   0  0  0  0  0  0  0  0  0  0  0  0
    9.8138   -7.4561    0.0000 C   0  0  0  0  0  0  0  0  0  0  0  0
    9.8150   -6.6311    0.0000 C   0  0  0  0  0  0  0  0  0  0  0  0
    9.1011   -6.2176    0.0000 C   0  0  0  0  0  0  0  0  0  0  0  0
    8.3861   -6.6291    0.0000 C   0  0  1  0  0  0  0  0  0  0  0  0
    8.3849   -7.4541    0.0000 C   0  0  2  0  0  0  0  0  0  0  0  0
    9.0988   -7.8676    0.0000 C   0  0  0  0  0  0  0  0  0  0  0  0
    7.6722   -6.2155    0.0000 C   0  0  0  0  0  0  0  0  0  0  0  0
    6.9571   -6.6270    0.0000 C   0  0  0  0  0  0  0  0  0  0  0  0
    6.9560   -7.4520    0.0000 C   0  0  0  0  0  0  0  0  0  0  0  0
    7.6698   -7.8655    0.0000 C   0  0  0  0  0  0  0  0  0  0  0  0
    6.1729   -6.3710    0.0000 C   0  0  0  0  0  0  0  0  0  0  0  0
    5.6870   -7.0377    0.0000 C   0  0  0  0  0  0  0  0  0  0  0  0
    6.1710   -7.7058    0.0000 O   0  0  0  0  0  0  0  0  0  0  0  0
    9.1023   -5.3926    0.0000 C   0  0  0  0  0  0  0  0  0  0  0  0
    5.9190   -5.5860    0.0000 C   0  0  0  0  0  0  0  0  0  0  0  0
    4.8620   -7.0366    0.0000 O   0  0  0  0  0  0  0  0  0  0  0  0
    8.3837   -8.2791    0.0000 C   0  0  0  0  0  0  0  0  0  0  0  0
    8.3872   -5.8041    0.0000 H   0  0  0  0  0  0  0  0  0  0  0  0
  1  2  1  0  0  0  0
  2  3  1  0  0  0  0
  3  4  1  0  0  0  0
  4  5  1  0  0  0  0
  5  6  1  0  0  0  0
  6  1  1  0  0  0  0
  4  7  1  0  0  0  0
  7  8  1  0  0  0  0
  8  9  1  0  0  0  0
  9 10  1  0  0  0  0
 10  5  1  0  0  0  0
  8 11  2  0  0  0  0
 11 12  1  0  0  0  0
 12 13  1  0  0  0  0
 13  9  1  0  0  0  0
  3 14  2  0  0  0  0
 11 15  1  0  0  0  0
 12 16  2  0  0  0  0
  5 17  1  1  0  0  0
  4 18  1  6  0  0  0
 19 20  1  0  0  0  0
 20 21  1  0  0  0  0
 21 22  1  0  0  0  0
 22 23  1  0  0  0  0
 23 24  1  0  0  0  0
 24 19  1  0  0  0  0
 22 25  1  0  0  0  0
 25 26  1  0  0  0  0
 26 27  1  0  0  0  0
 27 28  1  0  0  0  0
 28 23  1  0  0  0  0
 26 29  2  0  0  0  0
 29 30  1  0  0  0  0
 30 31  1  0  0  0  0
 31 27  1  0  0  0  0
 21 32  2  0  0  0  0
 29 33  1  0  0  0  0
 30 34  2  0  0  0  0
 23 35  1  1  0  0  0
 22 36  1  6  0  0  0
 27  9  1  0  0  0  0
M  END
>  <cdx:fragmentId>
5

$$$$
