98386.cdx
  Mrv1902 05222410202D          

 41 46  0  0  0  0            999 V2000
    5.8212   -8.9650    0.0000 C   0  0  0  0  0  0  0  0  0  0  0  0
    5.8212   -9.7900    0.0000 C   0  0  0  0  0  0  0  0  0  0  0  0
    6.5356  -10.2025    0.0000 C   0  0  0  0  0  0  0  0  0  0  0  0
    7.2501   -9.7900    0.0000 C   0  0  1  0  0  0  0  0  0  0  0  0
    7.2501   -8.9650    0.0000 C   0  0  2  0  0  0  0  0  0  0  0  0
    6.5356   -8.5525    0.0000 C   0  0  0  0  0  0  0  0  0  0  0  0
    7.9646  -10.2025    0.0000 C   0  0  0  0  0  0  0  0  0  0  0  0
    8.6791   -9.7900    0.0000 C   0  0  0  0  0  0  0  0  0  0  0  0
    8.6791   -8.9650    0.0000 C   0  0  0  0  0  0  0  0  0  0  0  0
    7.9646   -8.5525    0.0000 C   0  0  0  0  0  0  0  0  0  0  0  0
    9.4637  -10.0449    0.0000 C   0  0  0  0  0  0  0  0  0  0  0  0
    9.9486   -9.3775    0.0000 C   0  0  0  0  0  0  0  0  0  0  0  0
    9.4637   -8.7101    0.0000 O   0  0  0  0  0  0  0  0  0  0  0  0
    6.5356  -11.0275    0.0000 C   0  0  0  0  0  0  0  0  0  0  0  0
    9.7186  -10.8296    0.0000 C   0  0  0  0  0  0  0  0  0  0  0  0
   10.7736   -9.3775    0.0000 O   0  0  0  0  0  0  0  0  0  0  0  0
    7.2501   -8.1400    0.0000 C   0  0  0  0  0  0  0  0  0  0  0  0
    7.2501  -10.6150    0.0000 H   0  0  0  0  0  0  0  0  0  0  0  0
   11.5601   -7.1398    0.0000 C   0  0  0  0  0  0  0  0  0  0  0  0
   11.5613   -6.3148    0.0000 C   0  0  0  0  0  0  0  0  0  0  0  0
   10.8474   -5.9013    0.0000 C   0  0  0  0  0  0  0  0  0  0  0  0
   10.1323   -6.3128    0.0000 C   0  0  1  0  0  0  0  0  0  0  0  0
   10.1311   -7.1378    0.0000 C   0  0  2  0  0  0  0  0  0  0  0  0
   10.8450   -7.5513    0.0000 C   0  0  0  0  0  0  0  0  0  0  0  0
    9.4184   -5.8993    0.0000 C   0  0  0  0  0  0  0  0  0  0  0  0
    8.7034   -6.3108    0.0000 C   0  0  0  0  0  0  0  0  0  0  0  0
    8.7022   -7.1358    0.0000 C   0  0  0  0  0  0  0  0  0  0  0  0
    9.4161   -7.5493    0.0000 C   0  0  0  0  0  0  0  0  0  0  0  0
    7.9191   -6.0547    0.0000 C   0  0  0  0  0  0  0  0  0  0  0  0
    7.4332   -6.7215    0.0000 C   0  0  0  0  0  0  0  0  0  0  0  0
    7.9172   -7.3896    0.0000 O   0  0  0  0  0  0  0  0  0  0  0  0
   10.8485   -5.0763    0.0000 C   0  0  0  0  0  0  0  0  0  0  0  0
    7.6653   -5.2697    0.0000 C   0  0  0  0  0  0  0  0  0  0  0  0
    6.6082   -6.7203    0.0000 O   0  0  0  0  0  0  0  0  0  0  0  0
   10.1300   -7.9628    0.0000 C   0  0  0  0  0  0  0  0  0  0  0  0
   10.1335   -5.4878    0.0000 H   0  0  0  0  0  0  0  0  0  0  0  0
    5.1067  -10.2025    0.0000 O   0  0  0  0  0  0  0  0  0  0  0  0
    4.3922   -9.7900    0.0000 S   0  0  0  0  0  0  0  0  0  0  0  0
    3.6778  -10.2025    0.0000 O   0  0  0  0  0  0  0  0  0  0  0  0
    2.9633   -9.7900    0.0000 O   0  0  0  0  0  0  0  0  0  0  0  0
    2.2488  -10.2025    0.0000 O   0  0  0  0  0  0  0  0  0  0  0  0
  1  2  1  0  0  0  0
  2  3  1  0  0  0  0
  3  4  1  0  0  0  0
  4  5  1  0  0  0  0
  5  6  1  0  0  0  0
  6  1  1  0  0  0  0
  4  7  1  0  0  0  0
  7  8  1  0  0  0  0
  8  9  1  0  0  0  0
  9 10  1  0  0  0  0
 10  5  1  0  0  0  0
  8 11  1  0  0  0  0
 11 12  1  0  0  0  0
 12 13  1  0  0  0  0
 13  9  1  0  0  0  0
  3 14  2  0  0  0  0
 11 15  1  0  0  0  0
 12 16  2  0  0  0  0
  5 17  1  1  0  0  0
  4 18  1  6  0  0  0
 19 20  1  0  0  0  0
 20 21  1  0  0  0  0
 21 22  1  0  0  0  0
 22 23  1  0  0  0  0
 23 24  1  0  0  0  0
 24 19  1  0  0  0  0
 22 25  1  0  0  0  0
 25 26  1  0  0  0  0
 26 27  1  0  0  0  0
 27 28  1  0  0  0  0
 28 23  1  0  0  0  0
 26 29  2  0  0  0  0
 29 30  1  0  0  0  0
 30 31  1  0  0  0  0
 31 27  1  0  0  0  0
 21 32  2  0  0  0  0
 29 33  1  0  0  0  0
 30 34  2  0  0  0  0
 23 35  1  1  0  0  0
 22 36  1  6  0  0  0
 27  9  1  0  0  0  0
  2 37  1  0  0  0  0
 37 38  1  0  0  0  0
 38 39  1  0  0  0  0
 39 40  1  0  0  0  0
 40 41  1  0  0  0  0
M  END
>  <cdx:fragmentId>
5

$$$$
