98392.cdx
  Mrv1902 05222410202D          

 16 17  0  0  0  0            999 V2000
    5.4087   -8.5663    0.0000 C   0  0  0  0  0  0  0  0  0  0  0  0
    5.4087   -9.3913    0.0000 C   0  0  0  0  0  0  0  0  0  0  0  0
    6.1231   -9.8038    0.0000 C   0  0  0  0  0  0  0  0  0  0  0  0
    6.8376   -9.3913    0.0000 C   0  0  0  0  0  0  0  0  0  0  0  0
    6.8376   -8.5663    0.0000 C   0  0  0  0  0  0  0  0  0  0  0  0
    6.1231   -8.1538    0.0000 C   0  0  0  0  0  0  0  0  0  0  0  0
    7.6222   -9.6462    0.0000 C   0  0  0  0  0  0  0  0  0  0  0  0
    8.1072   -8.9788    0.0000 O   0  0  0  0  0  0  0  0  0  0  0  0
    7.6222   -8.3113    0.0000 C   0  0  1  0  0  0  0  0  0  0  0  0
    7.8772  -10.4308    0.0000 O   0  0  0  0  0  0  0  0  0  0  0  0
    6.1231  -10.6288    0.0000 O   0  0  0  0  0  0  0  0  0  0  0  0
    7.8772   -7.5267    0.0000 C   0  0  0  0  0  0  0  0  0  0  0  0
    8.6842   -7.3552    0.0000 C   0  0  0  0  0  0  0  0  0  0  0  0
    8.9391   -6.5705    0.0000 C   0  0  0  0  0  0  0  0  0  0  0  0
    9.7461   -6.3990    0.0000 C   0  0  0  0  0  0  0  0  0  0  0  0
    7.0389   -7.7279    0.0000 H   0  0  0  0  0  0  0  0  0  0  0  0
  1  2  2  0  0  0  0
  2  3  1  0  0  0  0
  3  4  2  0  0  0  0
  4  5  1  0  0  0  0
  5  6  2  0  0  0  0
  6  1  1  0  0  0  0
  4  7  1  0  0  0  0
  7  8  1  0  0  0  0
  8  9  1  0  0  0  0
  9  5  1  0  0  0  0
  7 10  2  0  0  0  0
  3 11  1  0  0  0  0
  9 12  1  0  0  0  0
 12 13  1  0  0  0  0
 13 14  1  0  0  0  0
 14 15  1  0  0  0  0
  9 16  1  1  0  0  0
M  END
>  <cdx:fragmentId>
5

$$$$
