98394.cdx
  Mrv1902 05222410222D          

 31 34  0  0  0  0            999 V2000
    5.1612   -9.4462    0.0000 C   0  0  0  0  0  0  0  0  0  0  0  0
    5.1612  -10.2713    0.0000 C   0  0  0  0  0  0  0  0  0  0  0  0
    5.8756  -10.6837    0.0000 C   0  0  0  0  0  0  0  0  0  0  0  0
    6.5901  -10.2713    0.0000 C   0  0  0  0  0  0  0  0  0  0  0  0
    6.5901   -9.4462    0.0000 C   0  0  0  0  0  0  0  0  0  0  0  0
    5.8756   -9.0337    0.0000 C   0  0  0  0  0  0  0  0  0  0  0  0
    7.3046  -10.6837    0.0000 C   0  0  0  0  0  0  0  0  0  0  0  0
    8.0191  -10.2713    0.0000 C   0  0  0  0  0  0  0  0  0  0  0  0
    8.0191   -9.4462    0.0000 C   0  0  0  0  0  0  0  0  0  0  0  0
    7.3046   -9.0337    0.0000 O   0  0  0  0  0  0  0  0  0  0  0  0
    9.4480   -9.4462    0.0000 C   0  0  0  0  0  0  0  0  0  0  0  0
    8.7335   -9.0337    0.0000 C   0  0  0  0  0  0  0  0  0  0  0  0
   10.1625   -9.0337    0.0000 C   0  0  0  0  0  0  0  0  0  0  0  0
   10.1625   -8.2088    0.0000 C   0  0  0  0  0  0  0  0  0  0  0  0
    9.4480   -7.7963    0.0000 C   0  0  0  0  0  0  0  0  0  0  0  0
    8.7335   -8.2088    0.0000 C   0  0  0  0  0  0  0  0  0  0  0  0
    5.8756   -8.2088    0.0000 O   0  0  0  0  0  0  0  0  0  0  0  0
    4.4467   -9.0337    0.0000 O   0  0  0  0  0  0  0  0  0  0  0  0
    5.8756  -11.5087    0.0000 O   0  0  0  0  0  0  0  0  0  0  0  0
    7.3046  -11.5087    0.0000 O   0  0  0  0  0  0  0  0  0  0  0  0
   10.8769   -7.7963    0.0000 O   0  0  0  0  0  0  0  0  0  0  0  0
    5.4616   -7.4952    0.0000 C   0  0  2  0  0  0  0  0  0  0  0  0
    5.8726   -6.7798    0.0000 O   0  0  0  0  0  0  0  0  0  0  0  0
    5.4586   -6.0662    0.0000 C   0  0  2  0  0  0  0  0  0  0  0  0
    4.6336   -6.0680    0.0000 C   0  0  1  0  0  0  0  0  0  0  0  0
    4.2226   -6.7833    0.0000 C   0  0  2  0  0  0  0  0  0  0  0  0
    4.6366   -7.4969    0.0000 C   0  0  1  0  0  0  0  0  0  0  0  0
    4.2257   -8.2123    0.0000 O   0  0  0  0  0  0  0  0  0  0  0  0
    3.3976   -6.7851    0.0000 O   0  0  0  0  0  0  0  0  0  0  0  0
    4.2195   -5.3544    0.0000 O   0  0  0  0  0  0  0  0  0  0  0  0
    5.8695   -5.3509    0.0000 C   0  0  0  0  0  0  0  0  0  0  0  0
  1  2  2  0  0  0  0
  2  3  1  0  0  0  0
  3  4  2  0  0  0  0
  4  5  1  0  0  0  0
  5  6  2  0  0  0  0
  6  1  1  0  0  0  0
  4  7  1  0  0  0  0
  7  8  1  0  0  0  0
  8  9  2  0  0  0  0
  9 10  1  0  0  0  0
 10  5  1  0  0  0  0
 11 12  2  0  0  0  0
 12  9  1  0  0  0  0
 11 13  1  0  0  0  0
 13 14  2  0  0  0  0
 14 15  1  0  0  0  0
 15 16  2  0  0  0  0
 16 12  1  0  0  0  0
  6 17  1  0  0  0  0
 18  1  1  0  0  0  0
  3 19  1  0  0  0  0
 20  7  2  0  0  0  0
 14 21  1  0  0  0  0
 22 17  1  1  0  0  0
 22 23  1  0  0  0  0
 23 24  1  0  0  0  0
 24 25  1  0  0  0  0
 25 26  1  0  0  0  0
 26 27  1  0  0  0  0
 27 22  1  0  0  0  0
 27 28  1  6  0  0  0
 26 29  1  6  0  0  0
 25 30  1  1  0  0  0
 24 31  1  6  0  0  0
M  END
>  <cdx:fragmentId>
5

$$$$
