983991.cdx
  Mrv1902 05222410232D          

 33 37  0  0  0  0            999 V2000
    7.0531   -6.1581    0.0000 O   0  0  0  0  0  0  0  0  0  0  0  0
    6.5750   -6.8304    0.0000 C   0  0  1  0  0  0  0  0  0  0  0  0
    5.7879   -6.5834    0.0000 C   0  0  0  0  0  0  0  0  0  0  0  0
    5.7795   -5.7585    0.0000 C   0  0  1  0  0  0  0  0  0  0  0  0
    6.5615   -5.4956    0.0000 C   0  0  0  0  0  0  0  0  0  0  0  0
    6.8084   -4.7084    0.0000 O   0  0  0  0  0  0  0  0  0  0  0  0
    5.1071   -5.2804    0.0000 C   0  0  0  0  0  0  0  0  0  0  0  0
    9.8830   -8.7868    0.0000 H   0  0  0  0  0  0  0  0  0  0  0  0
    7.5692   -9.6046    0.0000 H   0  0  0  0  0  0  0  0  0  0  0  0
    7.2210   -9.3988    0.0000 H   0  0  0  0  0  0  0  0  0  0  0  0
    6.7892  -10.0290    0.0000 C   0  0  0  0  0  0  0  0  0  0  0  0
    7.5078  -10.4342    0.0000 C   0  0  0  0  0  0  0  0  0  0  0  0
   10.3030  -12.0064    0.0000 C   0  0  0  0  0  0  0  0  0  0  0  0
    8.5573  -12.4235    0.0000 O   0  0  0  0  0  0  0  0  0  0  0  0
    9.7418  -10.6475    0.0000 C   0  0  0  0  0  0  0  0  0  0  0  0
    9.6762  -11.4699    0.0000 C   0  0  0  0  0  0  0  0  0  0  0  0
    8.8738  -11.6617    0.0000 C   0  0  0  0  0  0  0  0  0  0  0  0
    8.4435  -10.9578    0.0000 O   0  0  0  0  0  0  0  0  0  0  0  0
    6.8515   -8.9472    0.0000 C   0  0  0  0  0  0  0  0  0  0  0  0
    6.3598   -8.2847    0.0000 C   0  0  0  0  0  0  0  0  0  0  0  0
    6.8379   -7.6124    0.0000 C   0  0  2  0  0  0  0  0  0  0  0  0
    7.6251   -7.8593    0.0000 N   0  0  0  0  0  0  0  0  0  0  0  0
    8.2648   -7.3384    0.0000 C   0  0  0  0  0  0  0  0  0  0  0  0
    9.0710   -7.5138    0.0000 C   0  0  0  0  0  0  0  0  0  0  0  0
    9.4365   -8.2535    0.0000 C   0  0  0  0  0  0  0  0  0  0  0  0
    9.0861   -9.0004    0.0000 C   0  0  1  0  0  0  0  0  0  0  0  0
    9.5164   -9.7042    0.0000 O   0  0  0  0  0  0  0  0  0  0  0  0
    8.9799  -10.3310    0.0000 C   0  0  1  0  0  0  0  0  0  0  0  0
    8.2181  -10.0145    0.0000 C   0  0  2  0  0  0  0  0  0  0  0  0
    8.2837   -9.1921    0.0000 C   0  0  2  0  0  0  0  0  0  0  0  0
    7.6335   -8.6843    0.0000 C   0  0  2  0  0  0  0  0  0  0  0  0
    6.0129   -7.6124    0.0000 H   0  0  0  0  0  0  0  0  0  0  0  0
    5.8606   -7.2429    0.0000 H   0  0  0  0  0  0  0  0  0  0  0  0
 26  8  1  6  0  0  0
 30  9  1  1  0  0  0
 31 10  1  1  0  0  0
 29 12  1  1  0  0  0
 12 11  1  0  0  0  0
 16 13  1  0  0  0  0
 21  2  1  0  0  0  0
 17 14  2  0  0  0  0
 28 15  1  0  0  0  0
 28 18  1  0  0  0  0
 16 15  2  0  0  0  0
 17 16  1  0  0  0  0
 18 17  1  0  0  0  0
 30 26  1  0  0  0  0
 31 22  1  0  0  0  0
 31 19  1  0  0  0  0
 20 19  1  0  0  0  0
 21 20  1  0  0  0  0
 22 21  1  0  0  0  0
 23 22  1  0  0  0  0
 24 23  1  0  0  0  0
 25 24  1  0  0  0  0
 26 25  1  0  0  0  0
 27 26  1  0  0  0  0
 28 27  1  1  0  0  0
 29 28  1  0  0  0  0
 30 29  1  0  0  0  0
 31 30  1  0  0  0  0
  2  1  1  0  0  0  0
  2  3  1  0  0  0  0
  3  4  1  0  0  0  0
  4  5  1  0  0  0  0
  1  5  1  0  0  0  0
  5  6  2  0  0  0  0
  4  7  1  6  0  0  0
 21 32  1  6  0  0  0
  2 33  1  1  0  0  0
M  END
>  <cdx:fragmentId>
117801

$$$$
