984.cdx
  Mrv1902 05222410212D          

 17 16  0  0  0  0            999 V2000
    1.8428   -2.2003    0.0000 C   0  0  0  0  0  0  0  0  0  0  0  0
    2.5572   -2.6128    0.0000 C   0  0  0  0  0  0  0  0  0  0  0  0
    3.2717   -2.2003    0.0000 C   0  0  0  0  0  0  0  0  0  0  0  0
    3.9862   -2.6128    0.0000 C   0  0  0  0  0  0  0  0  0  0  0  0
    4.7006   -2.2003    0.0000 C   0  0  0  0  0  0  0  0  0  0  0  0
    5.4151   -2.6128    0.0000 C   0  0  0  0  0  0  0  0  0  0  0  0
    6.1296   -2.2003    0.0000 C   0  0  0  0  0  0  0  0  0  0  0  0
    6.8441   -2.6128    0.0000 C   0  0  0  0  0  0  0  0  0  0  0  0
    7.5585   -2.2003    0.0000 C   0  0  0  0  0  0  0  0  0  0  0  0
    8.2730   -2.6128    0.0000 C   0  0  0  0  0  0  0  0  0  0  0  0
    8.9875   -2.2003    0.0000 C   0  0  0  0  0  0  0  0  0  0  0  0
    9.7019   -2.6128    0.0000 C   0  0  0  0  0  0  0  0  0  0  0  0
   10.4164   -2.2003    0.0000 C   0  0  0  0  0  0  0  0  0  0  0  0
   11.1309   -2.6128    0.0000 C   0  0  0  0  0  0  0  0  0  0  0  0
   11.8454   -2.2003    0.0000 C   0  0  0  0  0  0  0  0  0  0  0  0
   12.5598   -2.6128    0.0000 C   0  0  0  0  0  0  0  0  0  0  0  0
    1.1283   -2.6128    0.0000 O   0  0  0  0  0  0  0  0  0  0  0  0
  1  2  1  0  0  0  0
  2  3  1  0  0  0  0
  3  4  1  0  0  0  0
  4  5  1  0  0  0  0
  5  6  1  0  0  0  0
  6  7  1  0  0  0  0
  7  8  1  0  0  0  0
  8  9  1  0  0  0  0
  9 10  1  0  0  0  0
 10 11  1  0  0  0  0
 11 12  1  0  0  0  0
 12 13  1  0  0  0  0
 13 14  1  0  0  0  0
 14 15  1  0  0  0  0
 15 16  1  0  0  0  0
  1 17  2  0  0  0  0
M  END
>  <cdx:groupId>
52

>  <cdx:fragmentId>
5

$$$$
