98400.cdx
  Mrv1902 05222410242D          

 26 28  0  0  0  0            999 V2000
    4.5853   -7.0072    0.0000 C   0  0  0  0  0  0  0  0  0  0  0  0
    4.5853   -7.8322    0.0000 C   0  0  0  0  0  0  0  0  0  0  0  0
    5.2997   -8.2447    0.0000 C   0  0  0  0  0  0  0  0  0  0  0  0
    6.0142   -7.8322    0.0000 C   0  0  0  0  0  0  0  0  0  0  0  0
    6.0142   -7.0072    0.0000 C   0  0  0  0  0  0  0  0  0  0  0  0
    5.2997   -6.5947    0.0000 C   0  0  0  0  0  0  0  0  0  0  0  0
    6.7287   -8.2447    0.0000 C   0  0  0  0  0  0  0  0  0  0  0  0
    7.4431   -7.8322    0.0000 C   0  0  0  0  0  0  0  0  0  0  0  0
    7.4431   -7.0072    0.0000 C   0  0  0  0  0  0  0  0  0  0  0  0
    6.7287   -6.5947    0.0000 O   0  0  0  0  0  0  0  0  0  0  0  0
    8.1576   -8.2447    0.0000 C   0  0  0  0  0  0  0  0  0  0  0  0
    8.8721   -7.8322    0.0000 C   0  0  0  0  0  0  0  0  0  0  0  0
    8.8721   -7.0072    0.0000 C   0  0  0  0  0  0  0  0  0  0  0  0
    9.5866   -8.2447    0.0000 C   0  0  0  0  0  0  0  0  0  0  0  0
   10.3010   -7.8322    0.0000 C   0  0  0  0  0  0  0  0  0  0  0  0
   10.3010   -7.0072    0.0000 C   0  0  0  0  0  0  0  0  0  0  0  0
    9.5866   -6.5947    0.0000 C   0  0  0  0  0  0  0  0  0  0  0  0
    6.7287   -9.0697    0.0000 O   0  0  0  0  0  0  0  0  0  0  0  0
    5.2997   -9.0697    0.0000 O   0  0  0  0  0  0  0  0  0  0  0  0
   11.0155   -6.5947    0.0000 O   0  0  0  0  0  0  0  0  0  0  0  0
    3.8708   -6.5947    0.0000 O   0  0  0  0  0  0  0  0  0  0  0  0
    5.2997   -5.7697    0.0000 C   0  0  0  0  0  0  0  0  0  0  0  0
   11.7300   -7.0072    0.0000 C   0  0  0  0  0  0  0  0  0  0  0  0
    9.5866   -9.0697    0.0000 O   0  0  0  0  0  0  0  0  0  0  0  0
   10.3010   -9.4822    0.0000 C   0  0  0  0  0  0  0  0  0  0  0  0
    3.8708   -8.2447    0.0000 C   0  0  0  0  0  0  0  0  0  0  0  0
  1  2  2  0  0  0  0
  2  3  1  0  0  0  0
  3  4  2  0  0  0  0
  4  5  1  0  0  0  0
  5  6  2  0  0  0  0
  6  1  1  0  0  0  0
  4  7  1  0  0  0  0
  7  8  1  0  0  0  0
  8  9  1  0  0  0  0
  9 10  1  0  0  0  0
 10  5  1  0  0  0  0
  8 11  1  0  0  0  0
 11 12  1  0  0  0  0
 12 13  2  0  0  0  0
 12 14  1  0  0  0  0
 14 15  2  0  0  0  0
 15 16  1  0  0  0  0
 16 17  2  0  0  0  0
 17 13  1  0  0  0  0
  7 18  2  0  0  0  0
  3 19  1  0  0  0  0
 16 20  1  0  0  0  0
  1 21  1  0  0  0  0
  6 22  1  0  0  0  0
 20 23  1  0  0  0  0
 14 24  1  0  0  0  0
 24 25  1  0  0  0  0
  2 26  1  0  0  0  0
M  END
>  <cdx:fragmentId>
5

$$$$
