98404.cdx
  Mrv1902 05222410242D          

 53 58  0  0  0  0            999 V2000
    8.8591   -7.6942    0.0000 C   0  0  0  0  0  0  0  0  0  0  0  0
    8.8591   -8.5192    0.0000 C   0  0  0  0  0  0  0  0  0  0  0  0
    8.1447   -8.9317    0.0000 C   0  0  0  0  0  0  0  0  0  0  0  0
    8.1447   -9.7567    0.0000 O   0  0  0  0  0  0  0  0  0  0  0  0
    7.4302   -8.5192    0.0000 C   0  0  0  0  0  0  0  0  0  0  0  0
    6.7157   -8.9317    0.0000 C   0  0  0  0  0  0  0  0  0  0  0  0
    6.0013   -8.5192    0.0000 C   0  0  0  0  0  0  0  0  0  0  0  0
    6.0013   -7.6942    0.0000 C   0  0  0  0  0  0  0  0  0  0  0  0
    6.7157   -7.2817    0.0000 C   0  0  0  0  0  0  0  0  0  0  0  0
    7.4302   -7.6942    0.0000 C   0  0  0  0  0  0  0  0  0  0  0  0
    8.1447   -7.2817    0.0000 O   0  0  0  0  0  0  0  0  0  0  0  0
    9.5736   -7.2817    0.0000 C   0  0  0  0  0  0  0  0  0  0  0  0
    9.5736   -6.4567    0.0000 C   0  0  0  0  0  0  0  0  0  0  0  0
   10.2881   -6.0442    0.0000 C   0  0  0  0  0  0  0  0  0  0  0  0
   11.0025   -6.4567    0.0000 C   0  0  0  0  0  0  0  0  0  0  0  0
   11.0025   -7.2817    0.0000 C   0  0  0  0  0  0  0  0  0  0  0  0
   10.2881   -7.6942    0.0000 C   0  0  0  0  0  0  0  0  0  0  0  0
    9.5736   -8.9317    0.0000 O   0  0  0  0  0  0  0  0  0  0  0  0
    5.2868   -8.9317    0.0000 O   0  0  0  0  0  0  0  0  0  0  0  0
    5.2868   -7.2817    0.0000 O   0  0  0  0  0  0  0  0  0  0  0  0
    8.8541  -11.0008    0.0000 C   0  0  2  0  0  0  0  0  0  0  0  0
    9.5677  -11.4148    0.0000 C   0  0  2  0  0  0  0  0  0  0  0  0
   10.2831  -11.0037    0.0000 C   0  0  1  0  0  0  0  0  0  0  0  0
   10.2848  -10.1788    0.0000 C   0  0  2  0  0  0  0  0  0  0  0  0
    9.5711   -9.7648    0.0000 C   0  0  1  0  0  0  0  0  0  0  0  0
    8.8558  -10.1758    0.0000 O   0  0  0  0  0  0  0  0  0  0  0  0
    8.1388  -11.4119    0.0000 C   0  0  0  0  0  0  0  0  0  0  0  0
   10.9967  -11.4177    0.0000 O   0  0  0  0  0  0  0  0  0  0  0  0
    9.5661  -12.2398    0.0000 O   0  0  0  0  0  0  0  0  0  0  0  0
   11.0001   -9.7677    0.0000 O   0  0  0  0  0  0  0  0  0  0  0  0
    8.1371  -12.2368    0.0000 O   0  0  0  0  0  0  0  0  0  0  0  0
    3.8603   -7.2848    0.0000 C   0  0  2  0  0  0  0  0  0  0  0  0
    3.1459   -7.6974    0.0000 C   0  0  2  0  0  0  0  0  0  0  0  0
    3.1460   -8.5224    0.0000 C   0  0  1  0  0  0  0  0  0  0  0  0
    3.8606   -8.9348    0.0000 C   0  0  2  0  0  0  0  0  0  0  0  0
    4.5750   -8.5221    0.0000 C   0  0  1  0  0  0  0  0  0  0  0  0
    4.5748   -7.6971    0.0000 O   0  0  0  0  0  0  0  0  0  0  0  0
    3.8601   -6.4598    0.0000 C   0  0  0  0  0  0  0  0  0  0  0  0
    2.4317   -8.9350    0.0000 O   0  0  0  0  0  0  0  0  0  0  0  0
    2.4313   -7.2850    0.0000 O   0  0  0  0  0  0  0  0  0  0  0  0
    3.8608   -9.7598    0.0000 O   0  0  0  0  0  0  0  0  0  0  0  0
    3.1455   -6.0474    0.0000 O   0  0  0  0  0  0  0  0  0  0  0  0
    6.9372   -5.8495    0.0000 C   0  0  2  0  0  0  0  0  0  0  0  0
    6.5245   -5.1352    0.0000 C   0  0  2  0  0  0  0  0  0  0  0  0
    5.6995   -5.1355    0.0000 C   0  0  1  0  0  0  0  0  0  0  0  0
    5.2872   -5.8501    0.0000 C   0  0  2  0  0  0  0  0  0  0  0  0
    5.7000   -6.5644    0.0000 C   0  0  1  0  0  0  0  0  0  0  0  0
    6.5250   -6.5641    0.0000 O   0  0  0  0  0  0  0  0  0  0  0  0
    7.7622   -5.8492    0.0000 C   0  0  0  0  0  0  0  0  0  0  0  0
    5.2867   -4.4212    0.0000 O   0  0  0  0  0  0  0  0  0  0  0  0
    6.9367   -4.4205    0.0000 O   0  0  0  0  0  0  0  0  0  0  0  0
    4.4622   -5.8505    0.0000 O   0  0  0  0  0  0  0  0  0  0  0  0
    8.1745   -5.1345    0.0000 O   0  0  0  0  0  0  0  0  0  0  0  0
  1  2  2  0  0  0  0
  2  3  1  0  0  0  0
  3  4  2  0  0  0  0
  3  5  1  0  0  0  0
  5  6  1  0  0  0  0
  6  7  2  0  0  0  0
  7  8  1  0  0  0  0
  8  9  2  0  0  0  0
  9 10  1  0  0  0  0
  5 10  2  0  0  0  0
 10 11  1  0  0  0  0
  1 11  1  0  0  0  0
  1 12  1  0  0  0  0
 12 13  1  0  0  0  0
 13 14  2  0  0  0  0
 14 15  1  0  0  0  0
 15 16  2  0  0  0  0
 16 17  1  0  0  0  0
 12 17  2  0  0  0  0
  2 18  1  0  0  0  0
  7 19  1  0  0  0  0
  8 20  1  0  0  0  0
 21 22  1  0  0  0  0
 22 23  1  0  0  0  0
 23 24  1  0  0  0  0
 24 25  1  0  0  0  0
 25 26  1  0  0  0  0
 26 21  1  0  0  0  0
 21 27  1  1  0  0  0
 23 28  1  1  0  0  0
 22 29  1  6  0  0  0
 24 30  1  6  0  0  0
 27 31  1  0  0  0  0
 32 33  1  0  0  0  0
 33 34  1  0  0  0  0
 34 35  1  0  0  0  0
 35 36  1  0  0  0  0
 36 37  1  0  0  0  0
 37 32  1  0  0  0  0
 32 38  1  1  0  0  0
 34 39  1  1  0  0  0
 33 40  1  6  0  0  0
 35 41  1  6  0  0  0
 38 42  1  0  0  0  0
 43 44  1  0  0  0  0
 44 45  1  0  0  0  0
 45 46  1  0  0  0  0
 46 47  1  0  0  0  0
 47 48  1  0  0  0  0
 48 43  1  0  0  0  0
 43 49  1  1  0  0  0
 45 50  1  1  0  0  0
 44 51  1  6  0  0  0
 46 52  1  6  0  0  0
 49 53  1  0  0  0  0
 25 18  1  1  0  0  0
 36 19  1  1  0  0  0
 47 20  1  1  0  0  0
M  END
>  <cdx:fragmentId>
5

$$$$
