98406.cdx
  Mrv1902 05222410262D          

 41 45  0  0  0  0            999 V2000
    6.4267   -8.2035    0.0000 H   0  0  0  0  0  0  0  0  0  0  0  0
    6.4267   -7.3785    0.0000 O   0  0  0  0  0  0  0  0  0  0  0  0
    5.7122   -7.7910    0.0000 C   0  0  2  0  0  0  0  0  0  0  0  0
    4.9978   -7.3785    0.0000 C   0  0  1  0  0  0  0  0  0  0  0  0
    4.9978   -6.5535    0.0000 C   0  0  1  0  0  0  0  0  0  0  0  0
    5.7122   -6.1410    0.0000 C   0  0  2  0  0  0  0  0  0  0  0  0
    6.4267   -6.5535    0.0000 C   0  0  2  0  0  0  0  0  0  0  0  0
    7.1412   -6.1410    0.0000 C   0  0  0  0  0  0  0  0  0  0  0  0
    5.7122   -5.3160    0.0000 O   0  0  0  0  0  0  0  0  0  0  0  0
    7.1412  -11.0910    0.0000 O   0  0  0  0  0  0  0  0  0  0  0  0
    4.2833  -11.0910    0.0000 O   0  0  0  0  0  0  0  0  0  0  0  0
    4.2833   -6.1410    0.0000 O   0  0  0  0  0  0  0  0  0  0  0  0
    4.2833   -7.7910    0.0000 O   0  0  0  0  0  0  0  0  0  0  0  0
    9.2846   -7.3785    0.0000 O   0  0  0  0  0  0  0  0  0  0  0  0
   10.7135   -6.5535    0.0000 O   0  0  0  0  0  0  0  0  0  0  0  0
   12.1425   -7.3785    0.0000 O   0  0  0  0  0  0  0  0  0  0  0  0
   12.1425   -9.0285    0.0000 C   0  0  0  0  0  0  0  0  0  0  0  0
   11.4280   -8.6160    0.0000 C   0  0  1  0  0  0  0  0  0  0  0  0
   11.4280   -7.7910    0.0000 C   0  0  1  0  0  0  0  0  0  0  0  0
   10.7135   -7.3785    0.0000 C   0  0  2  0  0  0  0  0  0  0  0  0
    9.9991   -7.7910    0.0000 C   0  0  2  0  0  0  0  0  0  0  0  0
    9.9991   -8.6160    0.0000 C   0  0  1  0  0  0  0  0  0  0  0  0
   10.7135   -9.0285    0.0000 O   0  0  0  0  0  0  0  0  0  0  0  0
    9.2846   -9.0285    0.0000 O   0  0  0  0  0  0  0  0  0  0  0  0
    8.5701   -8.6160    0.0000 C   0  0  0  0  0  0  0  0  0  0  0  0
    5.7122  -11.0910    0.0000 O   0  0  0  0  0  0  0  0  0  0  0  0
    6.4267   -9.8535    0.0000 C   0  0  0  0  0  0  0  0  0  0  0  0
    5.7122  -10.2660    0.0000 C   0  0  0  0  0  0  0  0  0  0  0  0
    4.9978   -9.8535    0.0000 C   0  0  0  0  0  0  0  0  0  0  0  0
    4.2833  -10.2660    0.0000 C   0  0  0  0  0  0  0  0  0  0  0  0
    3.5688   -9.8535    0.0000 C   0  0  0  0  0  0  0  0  0  0  0  0
    3.5688   -9.0285    0.0000 C   0  0  0  0  0  0  0  0  0  0  0  0
    4.2833   -8.6160    0.0000 C   0  0  0  0  0  0  0  0  0  0  0  0
    4.9978   -9.0285    0.0000 C   0  0  0  0  0  0  0  0  0  0  0  0
    5.7122   -8.6160    0.0000 C   0  0  1  0  0  0  0  0  0  0  0  0
    6.4267   -9.0285    0.0000 C   0  0  0  0  0  0  0  0  0  0  0  0
    7.1412   -8.6160    0.0000 C   0  0  0  0  0  0  0  0  0  0  0  0
    7.8556   -9.0285    0.0000 C   0  0  0  0  0  0  0  0  0  0  0  0
    7.8556   -9.8535    0.0000 C   0  0  0  0  0  0  0  0  0  0  0  0
    7.1412  -10.2660    0.0000 C   0  0  0  0  0  0  0  0  0  0  0  0
    4.9978   -8.2035    0.0000 H   0  0  0  0  0  0  0  0  0  0  0  0
 40 10  1  0  0  0  0
 30 11  1  0  0  0  0
 35  3  1  0  0  0  0
  3  1  1  6  0  0  0
 38 25  1  0  0  0  0
 25 24  1  0  0  0  0
 22 24  1  1  0  0  0
 21 14  1  6  0  0  0
 20 15  1  6  0  0  0
 19 16  1  1  0  0  0
 18 17  1  6  0  0  0
 23 18  1  0  0  0  0
 19 18  1  0  0  0  0
 20 19  1  0  0  0  0
 21 20  1  0  0  0  0
 22 21  1  0  0  0  0
 23 22  1  0  0  0  0
 28 26  2  0  0  0  0
 40 27  2  0  0  0  0
 36 27  1  0  0  0  0
 28 27  1  0  0  0  0
 29 28  1  0  0  0  0
 34 29  2  0  0  0  0
 30 29  1  0  0  0  0
 31 30  2  0  0  0  0
 32 31  1  0  0  0  0
 33 32  2  0  0  0  0
 34 33  1  0  0  0  0
 35 34  1  0  0  0  0
 35 36  1  0  0  0  0
 37 36  2  0  0  0  0
 38 37  1  0  0  0  0
 39 38  2  0  0  0  0
 40 39  1  0  0  0  0
  3  2  1  0  0  0  0
  3  4  1  0  0  0  0
  4  5  1  0  0  0  0
  5  6  1  0  0  0  0
  6  7  1  0  0  0  0
  2  7  1  0  0  0  0
  7  8  1  6  0  0  0
  6  9  1  1  0  0  0
 35 41  1  1  0  0  0
  5 12  1  6  0  0  0
  4 13  1  6  0  0  0
M  END
>  <cdx:fragmentId>
5

$$$$
