98405.cdx
  Mrv1902 05222410252D          

 30 32  0  0  0  0            999 V2000
    6.9878   -9.3404    0.0000 H   0  0  0  0  0  0  0  0  0  0  0  0
    6.9878   -8.5154    0.0000 O   0  0  0  0  0  0  0  0  0  0  0  0
    6.2733   -8.9279    0.0000 C   0  0  2  0  0  0  0  0  0  0  0  0
    5.5588   -8.5154    0.0000 C   0  0  1  0  0  0  0  0  0  0  0  0
    5.5588   -7.6904    0.0000 C   0  0  2  0  0  0  0  0  0  0  0  0
    6.2733   -7.2779    0.0000 C   0  0  1  0  0  0  0  0  0  0  0  0
    6.9878   -7.6904    0.0000 C   0  0  1  0  0  0  0  0  0  0  0  0
    7.7022   -7.2779    0.0000 C   0  0  0  0  0  0  0  0  0  0  0  0
    7.7022   -6.4529    0.0000 O   0  0  0  0  0  0  0  0  0  0  0  0
    6.2733   -6.4529    0.0000 O   0  0  0  0  0  0  0  0  0  0  0  0
    9.8456  -10.9904    0.0000 O   0  0  0  0  0  0  0  0  0  0  0  0
   10.5601   -9.7529    0.0000 C   0  0  0  0  0  0  0  0  0  0  0  0
    9.8456  -10.1654    0.0000 C   0  0  2  0  0  0  0  0  0  0  0  0
    9.1312   -9.7529    0.0000 C   0  0  0  0  0  0  0  0  0  0  0  0
    4.1299  -10.1654    0.0000 C   0  0  0  0  0  0  0  0  0  0  0  0
    4.8443   -9.7529    0.0000 O   0  0  0  0  0  0  0  0  0  0  0  0
    6.2733  -12.2279    0.0000 C   0  0  0  0  0  0  0  0  0  0  0  0
    4.8443   -7.2779    0.0000 O   0  0  0  0  0  0  0  0  0  0  0  0
    4.8443   -8.9279    0.0000 O   0  0  0  0  0  0  0  0  0  0  0  0
    7.7022  -12.2279    0.0000 O   0  0  0  0  0  0  0  0  0  0  0  0
    7.7022   -9.7529    0.0000 O   0  0  0  0  0  0  0  0  0  0  0  0
    6.9878  -10.1654    0.0000 C   0  0  0  0  0  0  0  0  0  0  0  0
    6.2733   -9.7529    0.0000 C   0  0  0  0  0  0  0  0  0  0  0  0
    5.5588  -10.1654    0.0000 C   0  0  0  0  0  0  0  0  0  0  0  0
    5.5588  -10.9904    0.0000 C   0  0  0  0  0  0  0  0  0  0  0  0
    6.2733  -11.4029    0.0000 C   0  0  0  0  0  0  0  0  0  0  0  0
    6.9878  -10.9904    0.0000 C   0  0  0  0  0  0  0  0  0  0  0  0
    7.7022  -11.4029    0.0000 C   0  0  0  0  0  0  0  0  0  0  0  0
    8.4167  -10.9904    0.0000 C   0  0  0  0  0  0  0  0  0  0  0  0
    8.4167  -10.1654    0.0000 C   0  0  0  0  0  0  0  0  0  0  0  0
 30 14  1  0  0  0  0
 13 11  1  1  0  0  0
 13 12  1  0  0  0  0
 14 13  1  0  0  0  0
 24 16  1  0  0  0  0
 16 15  1  0  0  0  0
 26 17  1  0  0  0  0
  3 23  1  0  0  0  0
  3  1  1  6  0  0  0
 28 20  2  0  0  0  0
 30 21  1  0  0  0  0
 22 21  1  0  0  0  0
 27 22  2  0  0  0  0
 23 22  1  0  0  0  0
 24 23  2  0  0  0  0
 25 24  1  0  0  0  0
 26 25  2  0  0  0  0
 27 26  1  0  0  0  0
 28 27  1  0  0  0  0
 29 28  1  0  0  0  0
 30 29  2  0  0  0  0
  2  3  1  0  0  0  0
  3  4  1  0  0  0  0
  4  5  1  0  0  0  0
  5  6  1  0  0  0  0
  6  7  1  0  0  0  0
  2  7  1  0  0  0  0
  8  9  1  0  0  0  0
  7  8  1  1  0  0  0
  6 10  1  6  0  0  0
  5 18  1  1  0  0  0
  4 19  1  6  0  0  0
M  END
>  <cdx:fragmentId>
5

$$$$
