98412.cdx
  Mrv1902 05222410262D          

 54 59  0  0  0  0            999 V2000
    9.2441   -6.5122    0.0000 C   0  0  0  0  0  0  0  0  0  0  0  0
    9.2441   -7.3372    0.0000 C   0  0  0  0  0  0  0  0  0  0  0  0
    9.9586   -7.7497    0.0000 O   0  0  0  0  0  0  0  0  0  0  0  0
    8.5297   -7.7497    0.0000 C   0  0  0  0  0  0  0  0  0  0  0  0
    8.5297   -8.5747    0.0000 O   0  0  0  0  0  0  0  0  0  0  0  0
    7.8152   -7.3372    0.0000 C   0  0  0  0  0  0  0  0  0  0  0  0
    7.1007   -7.7497    0.0000 C   0  0  0  0  0  0  0  0  0  0  0  0
    7.1007   -8.5747    0.0000 O   0  0  0  0  0  0  0  0  0  0  0  0
    6.3863   -7.3372    0.0000 C   0  0  0  0  0  0  0  0  0  0  0  0
    6.3863   -6.5122    0.0000 C   0  0  0  0  0  0  0  0  0  0  0  0
    5.6718   -6.0997    0.0000 O   0  0  0  0  0  0  0  0  0  0  0  0
    7.1007   -6.0997    0.0000 C   0  0  0  0  0  0  0  0  0  0  0  0
    7.8152   -6.5122    0.0000 C   0  0  0  0  0  0  0  0  0  0  0  0
    8.5297   -6.0997    0.0000 O   0  0  0  0  0  0  0  0  0  0  0  0
    9.9586   -6.0997    0.0000 C   0  0  0  0  0  0  0  0  0  0  0  0
    9.9586   -5.2747    0.0000 C   0  0  0  0  0  0  0  0  0  0  0  0
   10.6731   -4.8622    0.0000 C   0  0  0  0  0  0  0  0  0  0  0  0
   11.3875   -5.2747    0.0000 C   0  0  0  0  0  0  0  0  0  0  0  0
   12.1020   -4.8622    0.0000 O   0  0  0  0  0  0  0  0  0  0  0  0
   11.3875   -6.0997    0.0000 C   0  0  0  0  0  0  0  0  0  0  0  0
   10.6731   -6.5122    0.0000 C   0  0  0  0  0  0  0  0  0  0  0  0
    9.9586   -8.5747    0.0000 C   0  0  0  0  0  0  0  0  0  0  0  0
    9.2441   -8.9872    0.0000 O   0  0  0  0  0  0  0  0  0  0  0  0
    9.2441   -9.8122    0.0000 C   0  0  1  0  0  0  0  0  0  0  0  0
    9.9586  -10.2247    0.0000 C   0  0  2  0  0  0  0  0  0  0  0  0
   10.6731   -9.8122    0.0000 C   0  0  1  0  0  0  0  0  0  0  0  0
   10.6731   -8.9872    0.0000 C   0  0  1  0  0  0  0  0  0  0  0  0
    8.5297  -10.2247    0.0000 C   0  0  0  0  0  0  0  0  0  0  0  0
   11.3875  -10.2247    0.0000 O   0  0  0  0  0  0  0  0  0  0  0  0
    9.9586  -11.0497    0.0000 O   0  0  0  0  0  0  0  0  0  0  0  0
   11.3875   -8.5747    0.0000 O   0  0  0  0  0  0  0  0  0  0  0  0
    8.5297  -11.0497    0.0000 O   0  0  0  0  0  0  0  0  0  0  0  0
    4.9573   -6.5122    0.0000 C   0  0  0  0  0  0  0  0  0  0  0  0
    4.2428   -6.0997    0.0000 O   0  0  0  0  0  0  0  0  0  0  0  0
    3.5284   -6.5122    0.0000 C   0  0  1  0  0  0  0  0  0  0  0  0
    3.5284   -7.3372    0.0000 C   0  0  2  0  0  0  0  0  0  0  0  0
    4.2428   -7.7497    0.0000 C   0  0  1  0  0  0  0  0  0  0  0  0
    4.9573   -7.3372    0.0000 C   0  0  1  0  0  0  0  0  0  0  0  0
    2.8139   -6.0997    0.0000 C   0  0  0  0  0  0  0  0  0  0  0  0
    4.2428   -8.5747    0.0000 O   0  0  0  0  0  0  0  0  0  0  0  0
    2.8139   -7.7497    0.0000 O   0  0  0  0  0  0  0  0  0  0  0  0
    5.6718   -7.7497    0.0000 O   0  0  0  0  0  0  0  0  0  0  0  0
    2.0994   -6.5122    0.0000 O   0  0  0  0  0  0  0  0  0  0  0  0
    5.6855   -9.1660    0.0000 C   0  0  2  0  0  0  0  0  0  0  0  0
    4.9711   -9.5785    0.0000 O   0  0  0  0  0  0  0  0  0  0  0  0
    4.9711  -10.4035    0.0000 C   0  0  1  0  0  0  0  0  0  0  0  0
    5.6855  -10.8160    0.0000 C   0  0  2  0  0  0  0  0  0  0  0  0
    6.4000  -10.4035    0.0000 C   0  0  1  0  0  0  0  0  0  0  0  0
    6.4000   -9.5785    0.0000 C   0  0  1  0  0  0  0  0  0  0  0  0
    4.2566  -10.8160    0.0000 C   0  0  0  0  0  0  0  0  0  0  0  0
    7.1145  -10.8160    0.0000 O   0  0  0  0  0  0  0  0  0  0  0  0
    7.1145   -9.1660    0.0000 O   0  0  0  0  0  0  0  0  0  0  0  0
    5.6855  -11.6410    0.0000 O   0  0  0  0  0  0  0  0  0  0  0  0
    3.5421  -10.4035    0.0000 O   0  0  0  0  0  0  0  0  0  0  0  0
  1  2  2  0  0  0  0
  2  3  1  0  0  0  0
  2  4  1  0  0  0  0
  4  5  2  0  0  0  0
  4  6  1  0  0  0  0
  6  7  1  0  0  0  0
  7  8  1  0  0  0  0
  7  9  2  0  0  0  0
  9 10  1  0  0  0  0
 10 11  1  0  0  0  0
 10 12  2  0  0  0  0
 12 13  1  0  0  0  0
  6 13  2  0  0  0  0
 13 14  1  0  0  0  0
  1 14  1  0  0  0  0
  1 15  1  0  0  0  0
 15 16  1  0  0  0  0
 16 17  2  0  0  0  0
 17 18  1  0  0  0  0
 18 19  1  0  0  0  0
 18 20  2  0  0  0  0
 20 21  1  0  0  0  0
 15 21  2  0  0  0  0
  3 22  1  0  0  0  0
 22 23  1  0  0  0  0
 23 24  1  0  0  0  0
 24 25  1  0  0  0  0
 25 26  1  0  0  0  0
 26 27  1  0  0  0  0
 27 22  1  0  0  0  0
 24 28  1  1  0  0  0
 26 29  1  1  0  0  0
 25 30  1  6  0  0  0
 27 31  1  6  0  0  0
 28 32  1  0  0  0  0
 11 33  1  0  0  0  0
 33 34  1  0  0  0  0
 34 35  1  0  0  0  0
 35 36  1  0  0  0  0
 36 37  1  0  0  0  0
 37 38  1  0  0  0  0
 38 33  1  0  0  0  0
 35 39  1  1  0  0  0
 37 40  1  1  0  0  0
 36 41  1  6  0  0  0
 38 42  1  6  0  0  0
 39 43  1  0  0  0  0
 44 42  1  1  0  0  0
 44 45  1  0  0  0  0
 45 46  1  0  0  0  0
 46 47  1  0  0  0  0
 47 48  1  0  0  0  0
 48 49  1  0  0  0  0
 49 44  1  0  0  0  0
 46 50  1  1  0  0  0
 48 51  1  1  0  0  0
 49 52  1  6  0  0  0
 47 53  1  6  0  0  0
 50 54  1  0  0  0  0
M  END
>  <cdx:fragmentId>
5

$$$$
