98417.cdx
  Mrv1902 05222410242D          

 26 28  0  0  0  0            999 V2000
    5.8846   -8.2363    0.0000 C   0  0  0  0  0  0  0  0  0  0  0  0
    6.0982   -7.4394    0.0000 C   0  0  0  0  0  0  0  0  0  0  0  0
    6.8951   -7.2258    0.0000 C   0  0  0  0  0  0  0  0  0  0  0  0
    6.5991   -7.8237    0.0000 C   0  0  0  0  0  0  0  0  0  0  0  0
    7.7201   -7.2258    0.0000 C   0  0  0  0  0  0  0  0  0  0  0  0
    7.4241   -7.8237    0.0000 C   0  0  0  0  0  0  0  0  0  0  0  0
    7.8366   -8.5382    0.0000 C   0  0  0  0  0  0  0  0  0  0  0  0
    6.4826   -6.5114    0.0000 N   0  0  0  0  0  0  0  0  0  0  0  0
    6.2340   -5.7247    0.0000 C   0  0  0  0  0  0  0  0  0  0  0  0
    5.5148   -6.8560    0.0000 C   0  0  0  0  0  0  0  0  0  0  0  0
    7.8366   -9.3632    0.0000 O   0  0  0  0  0  0  0  0  0  0  0  0
    8.5511   -9.7757    0.0000 C   0  0  0  0  0  0  0  0  0  0  0  0
    8.5511  -10.6007    0.0000 O   0  0  0  0  0  0  0  0  0  0  0  0
    9.2656   -9.3632    0.0000 C   0  0  0  0  0  0  0  0  0  0  0  0
    9.2656   -8.5382    0.0000 C   0  0  0  0  0  0  0  0  0  0  0  0
    9.9800   -9.7757    0.0000 C   0  0  0  0  0  0  0  0  0  0  0  0
    9.9800   -8.1257    0.0000 C   0  0  0  0  0  0  0  0  0  0  0  0
    9.9800   -7.3007    0.0000 C   0  0  0  0  0  0  0  0  0  0  0  0
    9.2656   -6.8882    0.0000 C   0  0  0  0  0  0  0  0  0  0  0  0
    8.5511   -7.3007    0.0000 C   0  0  0  0  0  0  0  0  0  0  0  0
    8.5511   -8.1257    0.0000 C   0  0  0  0  0  0  0  0  0  0  0  0
    5.1702   -8.6487    0.0000 O   0  0  0  0  0  0  0  0  0  0  0  0
    4.7179   -7.0695    0.0000 C   0  0  0  0  0  0  0  0  0  0  0  0
    4.5044   -7.8664    0.0000 C   0  0  0  0  0  0  0  0  0  0  0  0
    4.1345   -6.4862    0.0000 C   0  0  0  0  0  0  0  0  0  0  0  0
    5.7283   -6.0591    0.0000 O   0  0  0  0  0  0  0  0  0  0  0  0
  1  2  1  0  0  0  0
  2  3  1  0  0  0  0
  1  4  1  0  0  0  0
  3  5  1  0  0  0  0
  4  6  1  0  0  0  0
  6  7  1  0  0  0  0
  5  7  1  0  0  0  0
  3  8  1  0  0  0  0
  4  8  1  0  0  0  0
  8  9  1  0  0  0  0
  2 10  1  0  0  0  0
  7 11  1  0  0  0  0
 11 12  1  0  0  0  0
 12 13  2  0  0  0  0
 12 14  1  0  0  0  0
 14 15  1  0  0  0  0
 14 16  2  0  0  0  0
 15 17  2  0  0  0  0
 17 18  1  0  0  0  0
 18 19  2  0  0  0  0
 19 20  1  0  0  0  0
 20 21  2  0  0  0  0
 21 15  1  0  0  0  0
  1 22  1  0  0  0  0
 10 23  1  0  0  0  0
 23 24  1  0  0  0  0
 23 25  2  0  0  0  0
 10 26  2  0  0  0  0
M  END
>  <cdx:fragmentId>
3

$$$$
