98411.cdx
  Mrv1902 05222410252D          

 35 38  0  0  0  0            999 V2000
    2.8644   -6.3255    0.0000 C   0  0  1  0  0  0  0  0  0  0  0  0
    2.4519   -7.0400    0.0000 C   0  0  1  0  0  0  0  0  0  0  0  0
    2.8644   -7.7545    0.0000 C   0  0  2  0  0  0  0  0  0  0  0  0
    3.6894   -7.7545    0.0000 C   0  0  1  0  0  0  0  0  0  0  0  0
    4.1019   -7.0400    0.0000 O   0  0  0  0  0  0  0  0  0  0  0  0
    3.6894   -6.3255    0.0000 C   0  0  2  0  0  0  0  0  0  0  0  0
    4.1019   -5.6111    0.0000 C   0  0  0  0  0  0  0  0  0  0  0  0
    3.6894   -4.8966    0.0000 O   0  0  0  0  0  0  0  0  0  0  0  0
    2.4519   -5.6111    0.0000 O   0  0  0  0  0  0  0  0  0  0  0  0
    2.4519   -8.4689    0.0000 O   0  0  0  0  0  0  0  0  0  0  0  0
    4.1019   -8.4689    0.0000 O   0  0  0  0  0  0  0  0  0  0  0  0
    4.9269   -8.4689    0.0000 C   0  0  0  0  0  0  0  0  0  0  0  0
    5.3394   -7.7545    0.0000 C   0  0  0  0  0  0  0  0  0  0  0  0
    5.3394   -9.1834    0.0000 C   0  0  0  0  0  0  0  0  0  0  0  0
    6.1644   -9.1834    0.0000 C   0  0  0  0  0  0  0  0  0  0  0  0
    6.5769   -8.4689    0.0000 C   0  0  0  0  0  0  0  0  0  0  0  0
    6.1644   -7.7545    0.0000 C   0  0  0  0  0  0  0  0  0  0  0  0
    7.4019   -8.4689    0.0000 C   0  0  0  0  0  0  0  0  0  0  0  0
    7.8144   -7.7545    0.0000 C   0  0  1  0  0  0  0  0  0  0  0  0
    7.4019   -7.0400    0.0000 C   0  0  0  0  0  0  0  0  0  0  0  0
    6.5769   -7.0400    0.0000 O   0  0  0  0  0  0  0  0  0  0  0  0
    7.9539   -9.0820    0.0000 O   0  0  0  0  0  0  0  0  0  0  0  0
    8.7076   -8.7465    0.0000 C   0  0  0  0  0  0  0  0  0  0  0  0
    8.6214   -7.9260    0.0000 C   0  0  0  0  0  0  0  0  0  0  0  0
    9.4613   -9.0820    0.0000 C   0  0  0  0  0  0  0  0  0  0  0  0
   10.1287   -8.5971    0.0000 C   0  0  0  0  0  0  0  0  0  0  0  0
   10.0425   -7.7766    0.0000 C   0  0  0  0  0  0  0  0  0  0  0  0
    9.2888   -7.4411    0.0000 C   0  0  0  0  0  0  0  0  0  0  0  0
   10.7099   -7.2917    0.0000 C   0  0  0  0  0  0  0  0  0  0  0  0
   11.4636   -7.6273    0.0000 C   0  0  0  0  0  0  0  0  0  0  0  0
   12.1310   -7.1423    0.0000 C   0  0  0  0  0  0  0  0  0  0  0  0
   12.8847   -7.4779    0.0000 O   0  0  0  0  0  0  0  0  0  0  0  0
    4.9269   -9.8979    0.0000 O   0  0  0  0  0  0  0  0  0  0  0  0
    5.3394  -10.6124    0.0000 C   0  0  0  0  0  0  0  0  0  0  0  0
    1.6269   -7.0400    0.0000 O   0  0  0  0  0  0  0  0  0  0  0  0
  1  2  1  0  0  0  0
  2  3  1  0  0  0  0
  3  4  1  0  0  0  0
  4  5  1  0  0  0  0
  5  6  1  0  0  0  0
  6  1  1  0  0  0  0
  6  7  1  1  0  0  0
  7  8  1  0  0  0  0
  1  9  1  6  0  0  0
  3 10  1  6  0  0  0
  4 11  1  1  0  0  0
 11 12  1  0  0  0  0
 12 13  2  0  0  0  0
 12 14  1  0  0  0  0
 14 15  2  0  0  0  0
 15 16  1  0  0  0  0
 16 17  2  0  0  0  0
 17 13  1  0  0  0  0
 16 18  1  0  0  0  0
 18 19  1  0  0  0  0
 19 20  1  1  0  0  0
 20 21  1  0  0  0  0
 18 22  1  0  0  0  0
 22 23  1  0  0  0  0
 23 24  2  0  0  0  0
 24 19  1  0  0  0  0
 23 25  1  0  0  0  0
 25 26  2  0  0  0  0
 26 27  1  0  0  0  0
 27 28  2  0  0  0  0
 28 24  1  0  0  0  0
 27 29  1  0  0  0  0
 29 30  1  0  0  0  0
 30 31  1  0  0  0  0
 31 32  1  0  0  0  0
 14 33  1  0  0  0  0
 33 34  1  0  0  0  0
  2 35  1  1  0  0  0
M  END
>  <cdx:fragmentId>
5

$$$$
