98415.cdx
  Mrv1902 05222410242D          

 42 45  0  0  0  0            999 V2000
    0.9669   -8.1400    0.0000 C   0  0  0  0  0  0  0  0  0  0  0  0
    0.9669   -7.3150    0.0000 C   0  0  0  0  0  0  0  0  0  0  0  0
    1.6814   -6.9025    0.0000 C   0  0  0  0  0  0  0  0  0  0  0  0
    1.6814   -6.0775    0.0000 C   0  0  0  0  0  0  0  0  0  0  0  0
    2.3958   -7.3150    0.0000 C   0  0  0  0  0  0  0  0  0  0  0  0
    3.1103   -6.9025    0.0000 O   0  0  0  0  0  0  0  0  0  0  0  0
    2.3958   -8.1400    0.0000 O   0  0  0  0  0  0  0  0  0  0  0  0
    3.8248   -7.3150    0.0000 C   0  0  0  0  0  0  0  0  0  0  0  0
    3.8248   -8.1400    0.0000 C   0  0  0  0  0  0  0  0  0  0  0  0
    4.5393   -8.5525    0.0000 C   0  0  0  0  0  0  0  0  0  0  0  0
    5.2537   -8.1400    0.0000 C   0  0  0  0  0  0  0  0  0  0  0  0
    5.2537   -7.3150    0.0000 C   0  0  0  0  0  0  0  0  0  0  0  0
    4.5393   -6.9025    0.0000 C   0  0  0  0  0  0  0  0  0  0  0  0
    5.9682   -8.5525    0.0000 C   0  0  0  0  0  0  0  0  0  0  0  0
    6.6827   -8.1400    0.0000 O   0  0  0  0  0  0  0  0  0  0  0  0
    5.9682   -9.3775    0.0000 O   0  0  0  0  0  0  0  0  0  0  0  0
    7.3971   -8.5525    0.0000 C   0  0  0  0  0  0  0  0  0  0  0  0
    7.6107   -7.7556    0.0000 C   0  0  0  0  0  0  0  0  0  0  0  0
    8.4076   -7.5421    0.0000 C   0  0  0  0  0  0  0  0  0  0  0  0
    8.1116   -8.1400    0.0000 C   0  0  0  0  0  0  0  0  0  0  0  0
    9.2326   -7.5421    0.0000 C   0  0  0  0  0  0  0  0  0  0  0  0
    8.9366   -8.1400    0.0000 C   0  0  0  0  0  0  0  0  0  0  0  0
    9.3491   -8.8545    0.0000 C   0  0  0  0  0  0  0  0  0  0  0  0
    7.9951   -6.8276    0.0000 N   0  0  0  0  0  0  0  0  0  0  0  0
    7.7465   -6.0410    0.0000 C   0  0  0  0  0  0  0  0  0  0  0  0
    7.0273   -7.1722    0.0000 O   0  0  0  0  0  0  0  0  0  0  0  0
    9.3491   -9.6795    0.0000 O   0  0  0  0  0  0  0  0  0  0  0  0
   10.0636  -10.0920    0.0000 C   0  0  0  0  0  0  0  0  0  0  0  0
   10.0636  -10.9170    0.0000 O   0  0  0  0  0  0  0  0  0  0  0  0
   10.7781   -9.6795    0.0000 C   0  0  0  0  0  0  0  0  0  0  0  0
   10.7781   -8.8545    0.0000 C   0  0  0  0  0  0  0  0  0  0  0  0
   11.4925  -10.0920    0.0000 C   0  0  0  0  0  0  0  0  0  0  0  0
   12.2070   -9.6795    0.0000 O   0  0  0  0  0  0  0  0  0  0  0  0
   12.9215  -10.0920    0.0000 C   0  0  0  0  0  0  0  0  0  0  0  0
   13.6359   -9.6795    0.0000 C   0  0  0  0  0  0  0  0  0  0  0  0
   12.9215  -10.9170    0.0000 C   0  0  0  0  0  0  0  0  0  0  0  0
   11.4925   -9.2670    0.0000 O   0  0  0  0  0  0  0  0  0  0  0  0
   11.4925   -8.4420    0.0000 C   0  0  0  0  0  0  0  0  0  0  0  0
   11.4925   -7.6170    0.0000 C   0  0  0  0  0  0  0  0  0  0  0  0
   10.7781   -7.2045    0.0000 C   0  0  0  0  0  0  0  0  0  0  0  0
   10.0636   -7.6170    0.0000 C   0  0  0  0  0  0  0  0  0  0  0  0
   10.0636   -8.4420    0.0000 C   0  0  0  0  0  0  0  0  0  0  0  0
  1  2  1  0  0  0  0
  2  3  1  0  0  0  0
  3  4  1  0  0  0  0
  3  5  1  0  0  0  0
  5  6  1  0  0  0  0
  5  7  2  0  0  0  0
  6  8  1  0  0  0  0
  8  9  2  0  0  0  0
  9 10  1  0  0  0  0
 10 11  2  0  0  0  0
 11 12  1  0  0  0  0
 12 13  2  0  0  0  0
 13  8  1  0  0  0  0
 11 14  1  0  0  0  0
 14 15  1  0  0  0  0
 14 16  2  0  0  0  0
 15 17  1  0  0  0  0
 17 18  1  0  0  0  0
 18 19  1  0  0  0  0
 17 20  1  0  0  0  0
 19 21  1  0  0  0  0
 20 22  1  0  0  0  0
 22 23  1  0  0  0  0
 21 23  1  0  0  0  0
 19 24  1  0  0  0  0
 20 24  1  0  0  0  0
 24 25  1  0  0  0  0
 18 26  1  0  0  0  0
 23 27  1  0  0  0  0
 27 28  1  0  0  0  0
 28 29  2  0  0  0  0
 28 30  1  0  0  0  0
 30 31  1  0  0  0  0
 30 32  1  0  0  0  0
 32 33  1  0  0  0  0
 33 34  1  0  0  0  0
 34 35  1  0  0  0  0
 34 36  1  0  0  0  0
 30 37  1  0  0  0  0
 31 38  2  0  0  0  0
 38 39  1  0  0  0  0
 39 40  2  0  0  0  0
 40 41  1  0  0  0  0
 41 42  2  0  0  0  0
 42 31  1  0  0  0  0
M  END
>  <cdx:fragmentId>
3

$$$$
