98419.cdx
  Mrv1902 05222410222D          

 26 28  0  0  0  0            999 V2000
    5.8846   -8.2363    0.0000 C   0  0  0  0  0  0  0  0  0  0  0  0
    6.0982   -7.4394    0.0000 C   0  0  0  0  0  0  0  0  0  0  0  0
    6.8951   -7.2258    0.0000 C   0  0  0  0  0  0  0  0  0  0  0  0
    6.5991   -7.8237    0.0000 C   0  0  0  0  0  0  0  0  0  0  0  0
    7.7201   -7.2258    0.0000 C   0  0  0  0  0  0  0  0  0  0  0  0
    7.4241   -7.8237    0.0000 C   0  0  0  0  0  0  0  0  0  0  0  0
    7.8366   -8.5382    0.0000 C   0  0  0  0  0  0  0  0  0  0  0  0
    6.4826   -6.5114    0.0000 N   0  0  0  0  0  0  0  0  0  0  0  0
    6.2340   -5.7247    0.0000 C   0  0  0  0  0  0  0  0  0  0  0  0
    7.8366   -9.3632    0.0000 O   0  0  0  0  0  0  0  0  0  0  0  0
    8.5511   -9.7757    0.0000 C   0  0  0  0  0  0  0  0  0  0  0  0
    8.5511  -10.6007    0.0000 O   0  0  0  0  0  0  0  0  0  0  0  0
    9.2656   -9.3632    0.0000 C   0  0  0  0  0  0  0  0  0  0  0  0
    9.2656   -8.5382    0.0000 C   0  0  0  0  0  0  0  0  0  0  0  0
    9.9800   -9.7757    0.0000 C   0  0  0  0  0  0  0  0  0  0  0  0
    9.9800   -8.1257    0.0000 C   0  0  0  0  0  0  0  0  0  0  0  0
    9.9800   -7.3007    0.0000 C   0  0  0  0  0  0  0  0  0  0  0  0
    9.2656   -6.8882    0.0000 C   0  0  0  0  0  0  0  0  0  0  0  0
    8.5511   -7.3007    0.0000 C   0  0  0  0  0  0  0  0  0  0  0  0
    8.5511   -8.1257    0.0000 C   0  0  0  0  0  0  0  0  0  0  0  0
    5.1702   -8.6487    0.0000 C   0  0  0  0  0  0  0  0  0  0  0  0
    5.1702   -9.4738    0.0000 C   0  0  0  0  0  0  0  0  0  0  0  0
    5.8846   -9.8863    0.0000 C   0  0  0  0  0  0  0  0  0  0  0  0
    4.4557   -9.8863    0.0000 C   0  0  0  0  0  0  0  0  0  0  0  0
    4.4557   -8.2363    0.0000 O   0  0  0  0  0  0  0  0  0  0  0  0
    5.5148   -6.8560    0.0000 O   0  0  0  0  0  0  0  0  0  0  0  0
  1  2  1  0  0  0  0
  2  3  1  0  0  0  0
  1  4  1  0  0  0  0
  3  5  1  0  0  0  0
  4  6  1  0  0  0  0
  6  7  1  0  0  0  0
  5  7  1  0  0  0  0
  3  8  1  0  0  0  0
  4  8  1  0  0  0  0
  8  9  1  0  0  0  0
  7 10  1  0  0  0  0
 10 11  1  0  0  0  0
 11 12  2  0  0  0  0
 11 13  1  0  0  0  0
 13 14  1  0  0  0  0
 13 15  2  0  0  0  0
 14 16  2  0  0  0  0
 16 17  1  0  0  0  0
 17 18  2  0  0  0  0
 18 19  1  0  0  0  0
 19 20  2  0  0  0  0
 20 14  1  0  0  0  0
  1 21  1  0  0  0  0
 21 22  1  0  0  0  0
 22 23  1  0  0  0  0
 22 24  2  0  0  0  0
 21 25  2  0  0  0  0
  2 26  1  0  0  0  0
M  END
>  <cdx:fragmentId>
3

$$$$
