98416.cdx
  Mrv1902 05222410232D          

 41 44  0  0  0  0            999 V2000
    7.3971   -8.5525    0.0000 C   0  0  0  0  0  0  0  0  0  0  0  0
    7.6107   -7.7556    0.0000 C   0  0  0  0  0  0  0  0  0  0  0  0
    8.4076   -7.5421    0.0000 C   0  0  0  0  0  0  0  0  0  0  0  0
    8.1116   -8.1400    0.0000 C   0  0  0  0  0  0  0  0  0  0  0  0
    9.2326   -7.5421    0.0000 C   0  0  0  0  0  0  0  0  0  0  0  0
    8.9366   -8.1400    0.0000 C   0  0  0  0  0  0  0  0  0  0  0  0
    9.3491   -8.8545    0.0000 C   0  0  0  0  0  0  0  0  0  0  0  0
    7.9951   -6.8276    0.0000 N   0  0  0  0  0  0  0  0  0  0  0  0
    7.7465   -6.0410    0.0000 C   0  0  0  0  0  0  0  0  0  0  0  0
    7.0273   -7.1722    0.0000 O   0  0  0  0  0  0  0  0  0  0  0  0
    9.3491   -9.6795    0.0000 O   0  0  0  0  0  0  0  0  0  0  0  0
   10.0636  -10.0920    0.0000 C   0  0  0  0  0  0  0  0  0  0  0  0
   10.0636  -10.9170    0.0000 O   0  0  0  0  0  0  0  0  0  0  0  0
   10.7781   -9.6795    0.0000 C   0  0  0  0  0  0  0  0  0  0  0  0
   10.7781   -8.8545    0.0000 C   0  0  0  0  0  0  0  0  0  0  0  0
   11.4925  -10.0920    0.0000 C   0  0  0  0  0  0  0  0  0  0  0  0
   12.2070   -9.6795    0.0000 O   0  0  0  0  0  0  0  0  0  0  0  0
   11.4925   -8.4420    0.0000 C   0  0  0  0  0  0  0  0  0  0  0  0
   11.4925   -7.6170    0.0000 C   0  0  0  0  0  0  0  0  0  0  0  0
   10.7781   -7.2045    0.0000 C   0  0  0  0  0  0  0  0  0  0  0  0
   10.0636   -7.6170    0.0000 C   0  0  0  0  0  0  0  0  0  0  0  0
   10.0636   -8.4420    0.0000 C   0  0  0  0  0  0  0  0  0  0  0  0
    6.6827   -8.9650    0.0000 C   0  0  0  0  0  0  0  0  0  0  0  0
    6.2702   -9.6795    0.0000 C   0  0  0  0  0  0  0  0  0  0  0  0
    5.5557   -9.2670    0.0000 C   0  0  0  0  0  0  0  0  0  0  0  0
    6.2702  -10.5045    0.0000 O   0  0  0  0  0  0  0  0  0  0  0  0
    4.8412   -9.6795    0.0000 C   0  0  0  0  0  0  0  0  0  0  0  0
    4.8412  -10.5045    0.0000 C   0  0  0  0  0  0  0  0  0  0  0  0
    4.1268  -10.9170    0.0000 C   0  0  0  0  0  0  0  0  0  0  0  0
    4.1268  -11.7420    0.0000 C   0  0  0  0  0  0  0  0  0  0  0  0
    4.8412  -12.1545    0.0000 C   0  0  0  0  0  0  0  0  0  0  0  0
    5.5557  -11.7420    0.0000 C   0  0  0  0  0  0  0  0  0  0  0  0
    5.5557  -10.9170    0.0000 C   0  0  0  0  0  0  0  0  0  0  0  0
    4.8412  -12.9795    0.0000 O   0  0  0  0  0  0  0  0  0  0  0  0
    4.1268  -13.3920    0.0000 C   0  0  0  0  0  0  0  0  0  0  0  0
    6.2702  -12.1545    0.0000 O   0  0  0  0  0  0  0  0  0  0  0  0
    6.2702  -12.9795    0.0000 C   0  0  0  0  0  0  0  0  0  0  0  0
    3.4123  -12.1545    0.0000 O   0  0  0  0  0  0  0  0  0  0  0  0
    6.2304   -7.3858    0.0000 C   0  0  0  0  0  0  0  0  0  0  0  0
    5.6470   -6.8024    0.0000 C   0  0  0  0  0  0  0  0  0  0  0  0
    6.0169   -8.1827    0.0000 O   0  0  0  0  0  0  0  0  0  0  0  0
  1  2  1  0  0  0  0
  2  3  1  0  0  0  0
  1  4  1  0  0  0  0
  3  5  1  0  0  0  0
  4  6  1  0  0  0  0
  6  7  1  0  0  0  0
  5  7  1  0  0  0  0
  3  8  1  0  0  0  0
  4  8  1  0  0  0  0
  8  9  1  0  0  0  0
  2 10  1  0  0  0  0
  7 11  1  0  0  0  0
 11 12  1  0  0  0  0
 12 13  2  0  0  0  0
 12 14  1  0  0  0  0
 14 15  1  0  0  0  0
 14 16  1  0  0  0  0
 16 17  1  0  0  0  0
 15 18  2  0  0  0  0
 18 19  1  0  0  0  0
 19 20  2  0  0  0  0
 20 21  1  0  0  0  0
 21 22  2  0  0  0  0
 22 15  1  0  0  0  0
  1 23  1  0  0  0  0
 23 24  1  0  0  0  0
 24 25  1  0  0  0  0
 24 26  2  0  0  0  0
 25 27  2  0  0  0  0
 27 28  1  0  0  0  0
 28 29  2  0  0  0  0
 29 30  1  0  0  0  0
 30 31  2  0  0  0  0
 31 32  1  0  0  0  0
 32 33  2  0  0  0  0
 33 28  1  0  0  0  0
 31 34  1  0  0  0  0
 34 35  1  0  0  0  0
 32 36  1  0  0  0  0
 36 37  1  0  0  0  0
 30 38  1  0  0  0  0
 10 39  1  0  0  0  0
 39 40  1  0  0  0  0
 39 41  2  0  0  0  0
M  END
>  <cdx:fragmentId>
3

$$$$
