98414.cdx
  Mrv1902 05222410242D          

 38 39  0  0  0  0            999 V2000
    6.7012   -7.4387    0.0000 C   0  0  2  0  0  0  0  0  0  0  0  0
    6.7012   -8.2637    0.0000 C   0  0  0  0  0  0  0  0  0  0  0  0
    7.4156   -8.6762    0.0000 C   0  0  2  0  0  0  0  0  0  0  0  0
    8.1301   -8.2637    0.0000 C   0  0  1  0  0  0  0  0  0  0  0  0
    8.1301   -7.4387    0.0000 C   0  0  2  0  0  0  0  0  0  0  0  0
    7.4156   -7.0263    0.0000 C   0  0  0  0  0  0  0  0  0  0  0  0
    8.9147   -8.5187    0.0000 C   0  0  2  0  0  0  0  0  0  0  0  0
    9.3997   -7.8513    0.0000 C   0  0  0  0  0  0  0  0  0  0  0  0
    8.9147   -7.1838    0.0000 C   0  0  1  0  0  0  0  0  0  0  0  0
    7.4156   -6.2012    0.0000 C   0  0  0  0  0  0  0  0  0  0  0  0
    5.9867   -7.0263    0.0000 O   0  0  0  0  0  0  0  0  0  0  0  0
    5.2722   -7.4387    0.0000 C   0  0  0  0  0  0  0  0  0  0  0  0
    4.5578   -7.0263    0.0000 C   0  0  0  0  0  0  0  0  0  0  0  0
    5.2722   -8.2637    0.0000 O   0  0  0  0  0  0  0  0  0  0  0  0
    3.8433   -7.4387    0.0000 C   0  0  0  0  0  0  0  0  0  0  0  0
    3.1288   -7.0263    0.0000 C   0  0  0  0  0  0  0  0  0  0  0  0
    3.8433   -8.2637    0.0000 C   0  0  0  0  0  0  0  0  0  0  0  0
    2.4144   -7.4387    0.0000 C   0  0  0  0  0  0  0  0  0  0  0  0
    7.4156   -9.5013    0.0000 C   0  0  0  0  0  0  0  0  0  0  0  0
    8.1301   -9.9138    0.0000 C   0  0  0  0  0  0  0  0  0  0  0  0
    6.7012   -9.9138    0.0000 C   0  0  0  0  0  0  0  0  0  0  0  0
    9.1697   -9.3033    0.0000 C   0  0  1  0  0  0  0  0  0  0  0  0
    8.6176   -9.9164    0.0000 C   0  0  0  0  0  0  0  0  0  0  0  0
    9.9767   -9.4748    0.0000 O   0  0  0  0  0  0  0  0  0  0  0  0
   10.1902  -10.2717    0.0000 C   0  0  0  0  0  0  0  0  0  0  0  0
   10.9871  -10.4853    0.0000 C   0  0  0  0  0  0  0  0  0  0  0  0
    9.6068  -10.8551    0.0000 O   0  0  0  0  0  0  0  0  0  0  0  0
   10.2247   -7.8513    0.0000 O   0  0  0  0  0  0  0  0  0  0  0  0
    9.1697   -6.3992    0.0000 O   0  0  0  0  0  0  0  0  0  0  0  0
    9.8904   -5.9977    0.0000 C   0  0  0  0  0  0  0  0  0  0  0  0
   10.5985   -6.4211    0.0000 C   0  0  0  0  0  0  0  0  0  0  0  0
    9.9031   -5.1728    0.0000 O   0  0  0  0  0  0  0  0  0  0  0  0
   11.3192   -6.0196    0.0000 C   0  0  0  0  0  0  0  0  0  0  0  0
   10.5858   -7.2460    0.0000 C   0  0  0  0  0  0  0  0  0  0  0  0
   12.0336   -6.4321    0.0000 C   0  0  0  0  0  0  0  0  0  0  0  0
    8.1301   -6.6137    0.0000 H   0  0  0  0  0  0  0  0  0  0  0  0
    8.1301   -9.0887    0.0000 H   0  0  0  0  0  0  0  0  0  0  0  0
    9.6994   -8.7736    0.0000 H   0  0  0  0  0  0  0  0  0  0  0  0
  1  2  1  0  0  0  0
  2  3  1  0  0  0  0
  3  4  1  0  0  0  0
  4  5  1  0  0  0  0
  5  6  1  0  0  0  0
  6  1  1  0  0  0  0
  4  7  1  0  0  0  0
  7  8  1  0  0  0  0
  8  9  1  0  0  0  0
  9  5  1  0  0  0  0
  6 10  2  0  0  0  0
  1 11  1  1  0  0  0
 11 12  1  0  0  0  0
 12 13  1  0  0  0  0
 12 14  2  0  0  0  0
 13 15  2  0  0  0  0
 15 16  1  0  0  0  0
 15 17  1  0  0  0  0
 16 18  1  0  0  0  0
  3 19  1  6  0  0  0
 19 20  1  0  0  0  0
 19 21  1  0  0  0  0
  7 22  1  0  0  0  0
 22 23  1  0  0  0  0
 22 24  1  6  0  0  0
 24 25  1  0  0  0  0
 25 26  1  0  0  0  0
 25 27  2  0  0  0  0
  8 28  2  0  0  0  0
  9 29  1  6  0  0  0
 29 30  1  0  0  0  0
 30 31  1  0  0  0  0
 30 32  2  0  0  0  0
 31 33  1  0  0  0  0
 31 34  1  0  0  0  0
 33 35  1  0  0  0  0
  5 36  1  1  0  0  0
  4 37  1  6  0  0  0
  7 38  1  1  0  0  0
M  END
>  <cdx:fragmentId>
5

$$$$
