98413.cdx
  Mrv1902 05222410252D          

 77 84  0  0  0  0            999 V2000
   11.5460   -9.5854    0.0000 O   0  0  0  0  0  0  0  0  0  0  0  0
   11.5460  -10.9054    0.0000 O   0  0  0  0  0  0  0  0  0  0  0  0
   10.9744  -11.8954    0.0000 O   0  0  0  0  0  0  0  0  0  0  0  0
   10.4028  -11.5654    0.0000 C   0  0  0  0  0  0  0  0  0  0  0  0
   10.4028   -7.6054    0.0000 O   0  0  0  0  0  0  0  0  0  0  0  0
   11.5460   -6.9454    0.0000 O   0  0  0  0  0  0  0  0  0  0  0  0
   12.6891   -7.6054    0.0000 O   0  0  0  0  0  0  0  0  0  0  0  0
   13.2607   -8.5954    0.0000 O   0  0  0  0  0  0  0  0  0  0  0  0
   12.6891   -8.9254    0.0000 C   0  0  0  0  0  0  0  0  0  0  0  0
   12.1176   -8.5954    0.0000 C   0  0  2  0  0  0  0  0  0  0  0  0
   12.1176   -7.9354    0.0000 C   0  0  2  0  0  0  0  0  0  0  0  0
   11.5460   -7.6054    0.0000 C   0  0  1  0  0  0  0  0  0  0  0  0
   10.9744   -7.9354    0.0000 C   0  0  2  0  0  0  0  0  0  0  0  0
   10.9744   -8.5954    0.0000 C   0  0  1  0  0  0  0  0  0  0  0  0
   11.5460   -8.9254    0.0000 O   0  0  0  0  0  0  0  0  0  0  0  0
   10.4028   -8.9254    0.0000 O   0  0  0  0  0  0  0  0  0  0  0  0
   10.4028  -10.9054    0.0000 C   0  0  2  0  0  0  0  0  0  0  0  0
   10.9744  -10.5754    0.0000 C   0  0  2  0  0  0  0  0  0  0  0  0
   10.9744   -9.9154    0.0000 C   0  0  1  0  0  0  0  0  0  0  0  0
   10.4028   -9.5854    0.0000 C   0  0  2  0  0  0  0  0  0  0  0  0
    9.8313   -9.9154    0.0000 C   0  0  1  0  0  0  0  0  0  0  0  0
    9.8313  -10.5754    0.0000 O   0  0  0  0  0  0  0  0  0  0  0  0
    9.2597   -9.5854    0.0000 O   0  0  0  0  0  0  0  0  0  0  0  0
    9.2597  -10.9054    0.0000 O   0  0  0  0  0  0  0  0  0  0  0  0
    8.1165  -11.5654    0.0000 O   0  0  0  0  0  0  0  0  0  0  0  0
    6.4018  -10.5754    0.0000 O   0  0  0  0  0  0  0  0  0  0  0  0
    6.9734  -10.9054    0.0000 C   0  0  0  0  0  0  0  0  0  0  0  0
    7.5450  -10.5754    0.0000 C   0  0  2  0  0  0  0  0  0  0  0  0
    8.1165  -10.9054    0.0000 C   0  0  2  0  0  0  0  0  0  0  0  0
    8.6881  -10.5754    0.0000 C   0  0  1  0  0  0  0  0  0  0  0  0
    8.6881   -9.9154    0.0000 C   0  0  2  0  0  0  0  0  0  0  0  0
    8.1165   -9.5854    0.0000 C   0  0  1  0  0  0  0  0  0  0  0  0
    7.5450   -9.9154    0.0000 O   0  0  0  0  0  0  0  0  0  0  0  0
    8.1165   -8.9254    0.0000 O   0  0  0  0  0  0  0  0  0  0  0  0
    5.8302   -9.5854    0.0000 O   0  0  0  0  0  0  0  0  0  0  0  0
    4.6871   -7.6054    0.0000 O   0  0  0  0  0  0  0  0  0  0  0  0
    9.8313   -6.6154    0.0000 O   0  0  0  0  0  0  0  0  0  0  0  0
    8.1165   -6.9454    0.0000 C   0  0  0  0  0  0  0  0  0  0  0  0
    8.6881   -6.6154    0.0000 C   0  0  0  0  0  0  0  0  0  0  0  0
    9.2597   -6.9454    0.0000 C   0  0  0  0  0  0  0  0  0  0  0  0
    9.2597   -7.6054    0.0000 C   0  0  0  0  0  0  0  0  0  0  0  0
    8.6881   -7.9354    0.0000 C   0  0  0  0  0  0  0  0  0  0  0  0
    8.1165   -7.6054    0.0000 C   0  0  0  0  0  0  0  0  0  0  0  0
    6.9734   -9.5854    0.0000 O   0  0  0  0  0  0  0  0  0  0  0  0
    6.9734   -7.6054    0.0000 O   0  0  0  0  0  0  0  0  0  0  0  0
    6.4018   -7.9354    0.0000 C   0  0  0  0  0  0  0  0  0  0  0  0
    5.8302   -7.6054    0.0000 C   0  0  0  0  0  0  0  0  0  0  0  0
    5.2586   -7.9354    0.0000 C   0  0  0  0  0  0  0  0  0  0  0  0
    5.2586   -8.5954    0.0000 C   0  0  0  0  0  0  0  0  0  0  0  0
    5.8302   -8.9254    0.0000 C   0  0  0  0  0  0  0  0  0  0  0  0
    6.4018   -8.5954    0.0000 C   0  0  0  0  0  0  0  0  0  0  0  0
    6.9734   -8.9254    0.0000 C   0  0  0  0  0  0  0  0  0  0  0  0
    7.5450   -8.5954    0.0000 C   0  0  0  0  0  0  0  0  0  0  0  0
    7.5450   -7.9354    0.0000 C   0  0  0  0  0  0  0  0  0  0  0  0
    8.6881   -5.9554    0.0000 O   0  0  0  0  0  0  0  0  0  0  0  0
    4.6826   -6.9409    0.0000 C   0  0  0  0  0  0  0  0  0  0  0  0
    5.2540   -6.6106    0.0000 O   0  0  0  0  0  0  0  0  0  0  0  0
    5.2536   -5.9506    0.0000 C   0  0  1  0  0  0  0  0  0  0  0  0
    4.6819   -5.6209    0.0000 C   0  0  2  0  0  0  0  0  0  0  0  0
    4.1105   -5.9512    0.0000 C   0  0  1  0  0  0  0  0  0  0  0  0
    4.1108   -6.6112    0.0000 C   0  0  1  0  0  0  0  0  0  0  0  0
    5.8250   -5.6203    0.0000 C   0  0  0  0  0  0  0  0  0  0  0  0
    3.5387   -5.6215    0.0000 O   0  0  0  0  0  0  0  0  0  0  0  0
    4.6815   -4.9609    0.0000 O   0  0  0  0  0  0  0  0  0  0  0  0
    3.5394   -6.9415    0.0000 O   0  0  0  0  0  0  0  0  0  0  0  0
    5.8247   -4.9603    0.0000 O   0  0  0  0  0  0  0  0  0  0  0  0
    2.8669   -6.5664    0.0000 C   0  0  2  0  0  0  0  0  0  0  0  0
    2.8665   -5.9064    0.0000 O   0  0  0  0  0  0  0  0  0  0  0  0
    2.2948   -5.5767    0.0000 C   0  0  1  0  0  0  0  0  0  0  0  0
    1.7234   -5.9070    0.0000 C   0  0  2  0  0  0  0  0  0  0  0  0
    1.7237   -6.5670    0.0000 C   0  0  1  0  0  0  0  0  0  0  0  0
    2.2955   -6.8967    0.0000 C   0  0  1  0  0  0  0  0  0  0  0  0
    2.2944   -4.9167    0.0000 C   0  0  0  0  0  0  0  0  0  0  0  0
    1.1523   -6.8973    0.0000 O   0  0  0  0  0  0  0  0  0  0  0  0
    2.2958   -7.5567    0.0000 O   0  0  0  0  0  0  0  0  0  0  0  0
    1.1516   -5.5773    0.0000 O   0  0  0  0  0  0  0  0  0  0  0  0
    2.8658   -4.5864    0.0000 O   0  0  0  0  0  0  0  0  0  0  0  0
 53 34  1  0  0  0  0
 32 34  1  1  0  0  0
 31 23  1  6  0  0  0
 21 23  1  1  0  0  0
 19  1  1  1  0  0  0
 18  2  1  6  0  0  0
 17  4  1  1  0  0  0
  4  3  1  0  0  0  0
 20 16  1  6  0  0  0
 14 16  1  1  0  0  0
 13  5  1  6  0  0  0
 12  6  1  1  0  0  0
 11  7  1  6  0  0  0
 10  9  1  1  0  0  0
  9  8  1  0  0  0  0
 15 10  1  0  0  0  0
 11 10  1  0  0  0  0
 12 11  1  0  0  0  0
 13 12  1  0  0  0  0
 14 13  1  0  0  0  0
 15 14  1  0  0  0  0
 22 17  1  0  0  0  0
 18 17  1  0  0  0  0
 19 18  1  0  0  0  0
 20 19  1  0  0  0  0
 21 20  1  0  0  0  0
 22 21  1  0  0  0  0
 30 24  1  1  0  0  0
 29 25  1  6  0  0  0
 28 27  1  1  0  0  0
 27 26  1  0  0  0  0
 33 28  1  0  0  0  0
 29 28  1  0  0  0  0
 30 29  1  0  0  0  0
 31 30  1  0  0  0  0
 32 31  1  0  0  0  0
 33 32  1  0  0  0  0
 50 35  1  0  0  0  0
 48 36  1  0  0  0  0
 54 43  1  0  0  0  0
 40 37  1  0  0  0  0
 43 38  2  0  0  0  0
 39 38  1  0  0  0  0
 40 39  2  0  0  0  0
 41 40  1  0  0  0  0
 42 41  2  0  0  0  0
 43 42  1  0  0  0  0
 52 44  2  0  0  0  0
 54 45  1  0  0  0  0
 46 45  1  0  0  0  0
 51 46  2  0  0  0  0
 47 46  1  0  0  0  0
 48 47  2  0  0  0  0
 49 48  1  0  0  0  0
 50 49  2  0  0  0  0
 51 50  1  0  0  0  0
 52 51  1  0  0  0  0
 53 52  1  0  0  0  0
 54 53  2  0  0  0  0
 39 55  1  0  0  0  0
 56 57  1  0  0  0  0
 57 58  1  0  0  0  0
 58 59  1  0  0  0  0
 59 60  1  0  0  0  0
 60 61  1  0  0  0  0
 61 56  1  0  0  0  0
 58 62  1  1  0  0  0
 60 63  1  1  0  0  0
 59 64  1  6  0  0  0
 61 65  1  6  0  0  0
 62 66  1  0  0  0  0
 67 65  1  1  0  0  0
 67 68  1  0  0  0  0
 68 69  1  0  0  0  0
 69 70  1  0  0  0  0
 70 71  1  0  0  0  0
 71 72  1  0  0  0  0
 72 67  1  0  0  0  0
 69 73  1  1  0  0  0
 71 74  1  1  0  0  0
 72 75  1  6  0  0  0
 70 76  1  6  0  0  0
 73 77  1  0  0  0  0
 56 36  1  0  0  0  0
M  END
>  <cdx:fragmentId>
83

$$$$
