98421.cdx
  Mrv1902 05222410212D          

 20 22  0  0  0  0            999 V2000
    5.6234   -8.4975    0.0000 C   0  0  0  0  0  0  0  0  0  0  0  0
    5.8369   -7.7006    0.0000 C   0  0  0  0  0  0  0  0  0  0  0  0
    6.6338   -7.4871    0.0000 C   0  0  0  0  0  0  0  0  0  0  0  0
    6.3379   -8.0850    0.0000 C   0  0  0  0  0  0  0  0  0  0  0  0
    7.4588   -7.4871    0.0000 C   0  0  0  0  0  0  0  0  0  0  0  0
    7.1629   -8.0850    0.0000 C   0  0  0  0  0  0  0  0  0  0  0  0
    7.5754   -8.7995    0.0000 C   0  0  0  0  0  0  0  0  0  0  0  0
    6.2213   -6.7726    0.0000 N   0  0  0  0  0  0  0  0  0  0  0  0
    5.9727   -5.9860    0.0000 C   0  0  0  0  0  0  0  0  0  0  0  0
    7.5754   -9.6245    0.0000 O   0  0  0  0  0  0  0  0  0  0  0  0
    8.2898  -10.0370    0.0000 C   0  0  0  0  0  0  0  0  0  0  0  0
    8.2898  -10.8620    0.0000 O   0  0  0  0  0  0  0  0  0  0  0  0
    9.0043   -9.6245    0.0000 C   0  0  0  0  0  0  0  0  0  0  0  0
    9.0043   -8.7995    0.0000 C   0  0  0  0  0  0  0  0  0  0  0  0
    9.7188   -8.3870    0.0000 C   0  0  0  0  0  0  0  0  0  0  0  0
    9.7188   -7.5620    0.0000 C   0  0  0  0  0  0  0  0  0  0  0  0
    9.0043   -7.1495    0.0000 C   0  0  0  0  0  0  0  0  0  0  0  0
    8.2898   -7.5620    0.0000 C   0  0  0  0  0  0  0  0  0  0  0  0
    8.2898   -8.3870    0.0000 C   0  0  0  0  0  0  0  0  0  0  0  0
    4.9089   -8.9100    0.0000 O   0  0  0  0  0  0  0  0  0  0  0  0
  1  2  1  0  0  0  0
  2  3  1  0  0  0  0
  1  4  1  0  0  0  0
  3  5  1  0  0  0  0
  4  6  1  0  0  0  0
  6  7  1  0  0  0  0
  5  7  1  0  0  0  0
  3  8  1  0  0  0  0
  4  8  1  0  0  0  0
  8  9  1  0  0  0  0
  7 10  1  0  0  0  0
 10 11  1  0  0  0  0
 11 12  2  0  0  0  0
 11 13  1  0  0  0  0
 13 14  1  0  0  0  0
 14 15  2  0  0  0  0
 15 16  1  0  0  0  0
 16 17  2  0  0  0  0
 17 18  1  0  0  0  0
 18 19  2  0  0  0  0
 19 14  1  0  0  0  0
  1 20  1  0  0  0  0
M  END
>  <cdx:fragmentId>
3

$$$$
