98420.cdx
  Mrv1902 05222410212D          

 41 44  0  0  0  0            999 V2000
    5.8846   -8.2363    0.0000 C   0  0  0  0  0  0  0  0  0  0  0  0
    6.0982   -7.4394    0.0000 C   0  0  0  0  0  0  0  0  0  0  0  0
    6.8951   -7.2258    0.0000 C   0  0  0  0  0  0  0  0  0  0  0  0
    6.5991   -7.8237    0.0000 C   0  0  0  0  0  0  0  0  0  0  0  0
    7.7201   -7.2258    0.0000 C   0  0  0  0  0  0  0  0  0  0  0  0
    7.4241   -7.8237    0.0000 C   0  0  0  0  0  0  0  0  0  0  0  0
    7.8366   -8.5382    0.0000 C   0  0  0  0  0  0  0  0  0  0  0  0
    6.4826   -6.5114    0.0000 N   0  0  0  0  0  0  0  0  0  0  0  0
    6.2340   -5.7247    0.0000 C   0  0  0  0  0  0  0  0  0  0  0  0
    7.8366   -9.3632    0.0000 O   0  0  0  0  0  0  0  0  0  0  0  0
    8.5511   -9.7757    0.0000 C   0  0  0  0  0  0  0  0  0  0  0  0
    8.5511  -10.6007    0.0000 O   0  0  0  0  0  0  0  0  0  0  0  0
    9.2656   -9.3632    0.0000 C   0  0  0  0  0  0  0  0  0  0  0  0
    9.2656   -8.5382    0.0000 C   0  0  0  0  0  0  0  0  0  0  0  0
    9.9800   -9.7757    0.0000 C   0  0  0  0  0  0  0  0  0  0  0  0
    9.9800   -8.1257    0.0000 C   0  0  0  0  0  0  0  0  0  0  0  0
    9.9800   -7.3007    0.0000 C   0  0  0  0  0  0  0  0  0  0  0  0
    9.2656   -6.8882    0.0000 C   0  0  0  0  0  0  0  0  0  0  0  0
    8.5511   -7.3007    0.0000 C   0  0  0  0  0  0  0  0  0  0  0  0
    8.5511   -8.1257    0.0000 C   0  0  0  0  0  0  0  0  0  0  0  0
    5.1702   -8.6487    0.0000 O   0  0  0  0  0  0  0  0  0  0  0  0
    5.1702   -9.4738    0.0000 C   0  0  0  0  0  0  0  0  0  0  0  0
    5.8846   -9.8863    0.0000 O   0  0  0  0  0  0  0  0  0  0  0  0
    4.4557   -9.8863    0.0000 C   0  0  0  0  0  0  0  0  0  0  0  0
    5.5148   -6.8560    0.0000 O   0  0  0  0  0  0  0  0  0  0  0  0
   10.6945   -9.3632    0.0000 O   0  0  0  0  0  0  0  0  0  0  0  0
   11.4090   -9.7757    0.0000 C   0  0  0  0  0  0  0  0  0  0  0  0
   12.1234   -9.3632    0.0000 C   0  0  0  0  0  0  0  0  0  0  0  0
   12.8379   -9.7757    0.0000 C   0  0  0  0  0  0  0  0  0  0  0  0
   12.1234   -8.5382    0.0000 C   0  0  0  0  0  0  0  0  0  0  0  0
    4.9314   -6.2726    0.0000 C   0  0  0  0  0  0  0  0  0  0  0  0
    4.1345   -6.4862    0.0000 C   0  0  0  0  0  0  0  0  0  0  0  0
    5.1450   -5.4757    0.0000 O   0  0  0  0  0  0  0  0  0  0  0  0
    3.5512   -5.9028    0.0000 C   0  0  0  0  0  0  0  0  0  0  0  0
    3.9210   -7.2830    0.0000 C   0  0  0  0  0  0  0  0  0  0  0  0
    4.4557  -10.7112    0.0000 C   0  0  0  0  0  0  0  0  0  0  0  0
    3.7412  -11.1237    0.0000 C   0  0  0  0  0  0  0  0  0  0  0  0
    3.7412  -11.9488    0.0000 C   0  0  0  0  0  0  0  0  0  0  0  0
    4.4557  -12.3613    0.0000 C   0  0  0  0  0  0  0  0  0  0  0  0
    5.1702  -11.9488    0.0000 C   0  0  0  0  0  0  0  0  0  0  0  0
    5.1702  -11.1237    0.0000 C   0  0  0  0  0  0  0  0  0  0  0  0
  1  2  1  0  0  0  0
  2  3  1  0  0  0  0
  1  4  1  0  0  0  0
  3  5  1  0  0  0  0
  4  6  1  0  0  0  0
  6  7  1  0  0  0  0
  5  7  1  0  0  0  0
  3  8  1  0  0  0  0
  4  8  1  0  0  0  0
  8  9  1  0  0  0  0
  7 10  1  0  0  0  0
 10 11  1  0  0  0  0
 11 12  2  0  0  0  0
 11 13  1  0  0  0  0
 13 14  1  0  0  0  0
 13 15  1  0  0  0  0
 14 16  2  0  0  0  0
 16 17  1  0  0  0  0
 17 18  2  0  0  0  0
 18 19  1  0  0  0  0
 19 20  2  0  0  0  0
 20 14  1  0  0  0  0
  1 21  1  0  0  0  0
 21 22  1  0  0  0  0
 22 23  2  0  0  0  0
 22 24  1  0  0  0  0
  2 25  1  0  0  0  0
 15 26  1  0  0  0  0
 26 27  1  0  0  0  0
 27 28  1  0  0  0  0
 28 29  1  0  0  0  0
 28 30  1  0  0  0  0
 25 31  1  0  0  0  0
 31 32  1  0  0  0  0
 31 33  2  0  0  0  0
 32 34  1  0  0  0  0
 32 35  1  0  0  0  0
 24 36  1  0  0  0  0
 36 37  2  0  0  0  0
 37 38  1  0  0  0  0
 38 39  2  0  0  0  0
 39 40  1  0  0  0  0
 40 41  2  0  0  0  0
 41 36  1  0  0  0  0
M  END
>  <cdx:fragmentId>
3

$$$$
