98425.cdx
  Mrv1902 05222410222D          

 38 42  0  0  0  0            999 V2000
    6.8807  -10.4860    0.0000 O   0  0  0  0  0  0  0  0  0  0  0  0
    5.4518   -8.0110    0.0000 O   0  0  0  0  0  0  0  0  0  0  0  0
   11.8820   -6.7735    0.0000 O   0  0  0  0  0  0  0  0  0  0  0  0
    9.7386   -7.1860    0.0000 C   0  0  0  0  0  0  0  0  0  0  0  0
   10.4531   -6.7735    0.0000 C   0  0  0  0  0  0  0  0  0  0  0  0
   11.1675   -7.1860    0.0000 C   0  0  0  0  0  0  0  0  0  0  0  0
   11.1675   -8.0110    0.0000 C   0  0  0  0  0  0  0  0  0  0  0  0
   10.4531   -8.4235    0.0000 C   0  0  0  0  0  0  0  0  0  0  0  0
    9.7386   -8.0110    0.0000 C   0  0  0  0  0  0  0  0  0  0  0  0
    8.3097  -10.4860    0.0000 O   0  0  0  0  0  0  0  0  0  0  0  0
    8.3097   -8.0110    0.0000 O   0  0  0  0  0  0  0  0  0  0  0  0
    7.5952   -8.4235    0.0000 C   0  0  0  0  0  0  0  0  0  0  0  0
    6.8807   -8.0110    0.0000 C   0  0  0  0  0  0  0  0  0  0  0  0
    6.1663   -8.4235    0.0000 C   0  0  0  0  0  0  0  0  0  0  0  0
    6.1663   -9.2485    0.0000 C   0  0  0  0  0  0  0  0  0  0  0  0
    6.8807   -9.6610    0.0000 C   0  0  0  0  0  0  0  0  0  0  0  0
    7.5952   -9.2485    0.0000 C   0  0  0  0  0  0  0  0  0  0  0  0
    8.3097   -9.6610    0.0000 C   0  0  0  0  0  0  0  0  0  0  0  0
    9.0241   -9.2485    0.0000 C   0  0  0  0  0  0  0  0  0  0  0  0
    9.0241   -8.4235    0.0000 C   0  0  0  0  0  0  0  0  0  0  0  0
    6.1279  -10.8957    0.0000 O   0  0  0  0  0  0  0  0  0  0  0  0
    4.6871  -11.6996    0.0000 O   0  0  0  0  0  0  0  0  0  0  0  0
    3.2704  -10.8538    0.0000 O   0  0  0  0  0  0  0  0  0  0  0  0
    3.9908  -10.4518    0.0000 C   0  0  0  0  0  0  0  0  0  0  0  0
    4.6992  -10.8747    0.0000 C   0  0  0  0  0  0  0  0  0  0  0  0
    5.4196  -10.4727    0.0000 C   0  0  0  0  0  0  0  0  0  0  0  0
    5.4317   -9.6478    0.0000 C   0  0  0  0  0  0  0  0  0  0  0  0
    4.7233   -9.2249    0.0000 O   0  0  0  0  0  0  0  0  0  0  0  0
    4.0029   -9.6269    0.0000 C   0  0  0  0  0  0  0  0  0  0  0  0
    5.4552   -7.1989    0.0000 O   0  0  0  0  0  0  0  0  0  0  0  0
    5.4512   -5.5489    0.0000 O   0  0  0  0  0  0  0  0  0  0  0  0
    6.8782   -4.7204    0.0000 O   0  0  0  0  0  0  0  0  0  0  0  0
    6.8802   -5.5454    0.0000 C   0  0  0  0  0  0  0  0  0  0  0  0
    6.1667   -5.9596    0.0000 C   0  0  0  0  0  0  0  0  0  0  0  0
    6.1687   -6.7846    0.0000 C   0  0  0  0  0  0  0  0  0  0  0  0
    6.8842   -7.1954    0.0000 C   0  0  0  0  0  0  0  0  0  0  0  0
    7.5976   -6.7812    0.0000 O   0  0  0  0  0  0  0  0  0  0  0  0
    7.5956   -5.9562    0.0000 C   0  0  0  0  0  0  0  0  0  0  0  0
 16  1  1  0  0  0  0
 14  2  1  0  0  0  0
 20  9  1  0  0  0  0
  6  3  1  0  0  0  0
  9  4  2  0  0  0  0
  5  4  1  0  0  0  0
  6  5  2  0  0  0  0
  7  6  1  0  0  0  0
  8  7  2  0  0  0  0
  9  8  1  0  0  0  0
 18 10  2  0  0  0  0
 20 11  1  0  0  0  0
 12 11  1  0  0  0  0
 17 12  2  0  0  0  0
 13 12  1  0  0  0  0
 14 13  2  0  0  0  0
 15 14  1  0  0  0  0
 16 15  2  0  0  0  0
 17 16  1  0  0  0  0
 18 17  1  0  0  0  0
 19 18  1  0  0  0  0
 20 19  2  0  0  0  0
 26 21  1  0  0  0  0
 25 22  1  0  0  0  0
 24 23  1  0  0  0  0
 24 29  1  0  0  0  0
 25 24  1  0  0  0  0
 26 25  1  0  0  0  0
 27 26  1  0  0  0  0
 28 27  1  0  0  0  0
 29 28  1  0  0  0  0
 35 30  1  0  0  0  0
 34 31  1  0  0  0  0
 33 32  1  0  0  0  0
 33 38  1  0  0  0  0
 34 33  1  0  0  0  0
 35 34  1  0  0  0  0
 36 35  1  0  0  0  0
 37 36  1  0  0  0  0
 38 37  1  0  0  0  0
 27 15  1  0  0  0  0
 36 13  1  0  0  0  0
M  END
>  <cdx:fragmentId>
5

$$$$
