98427.cdx
  Mrv1902 05222410232D          

 37 41  0  0  0  0            999 V2000
    3.8137   -8.3050    0.0000 C   0  0  0  0  0  0  0  0  0  0  0  0
    3.8137   -9.1300    0.0000 C   0  0  1  0  0  0  0  0  0  0  0  0
    4.5281   -9.5425    0.0000 C   0  0  0  0  0  0  0  0  0  0  0  0
    5.2426   -9.1300    0.0000 C   0  0  1  0  0  0  0  0  0  0  0  0
    5.2426   -8.3050    0.0000 C   0  0  2  0  0  0  0  0  0  0  0  0
    4.5281   -7.8925    0.0000 C   0  0  0  0  0  0  0  0  0  0  0  0
    5.9571   -9.5425    0.0000 C   0  0  0  0  0  0  0  0  0  0  0  0
    6.6716   -9.1300    0.0000 C   0  0  0  0  0  0  0  0  0  0  0  0
    6.6716   -8.3050    0.0000 C   0  0  2  0  0  0  0  0  0  0  0  0
    5.9571   -7.8925    0.0000 C   0  0  2  0  0  0  0  0  0  0  0  0
    7.3860   -7.8925    0.0000 C   0  0  1  0  0  0  0  0  0  0  0  0
    7.3860   -7.0675    0.0000 C   0  0  0  0  0  0  0  0  0  0  0  0
    6.6716   -6.6550    0.0000 C   0  0  0  0  0  0  0  0  0  0  0  0
    5.9571   -7.0675    0.0000 C   0  0  0  0  0  0  0  0  0  0  0  0
    8.1005   -8.3050    0.0000 C   0  0  0  0  0  0  0  0  0  0  0  0
    8.8150   -7.8925    0.0000 C   0  0  0  0  0  0  0  0  0  0  0  0
    8.8150   -7.0675    0.0000 C   0  0  2  0  0  0  0  0  0  0  0  0
    8.1005   -6.6550    0.0000 C   0  0  1  0  0  0  0  0  0  0  0  0
    9.5294   -6.6550    0.0000 C   0  0  2  0  0  0  0  0  0  0  0  0
    9.5294   -5.8300    0.0000 C   0  0  0  0  0  0  0  0  0  0  0  0
    8.8150   -5.4175    0.0000 C   0  0  0  0  0  0  0  0  0  0  0  0
    8.1005   -5.8300    0.0000 C   0  0  0  0  0  0  0  0  0  0  0  0
    3.0992   -9.5425    0.0000 O   0  0  0  0  0  0  0  0  0  0  0  0
    9.2275   -4.7030    0.0000 C   0  0  0  0  0  0  0  0  0  0  0  0
   10.3544   -6.6550    0.0000 O   0  0  0  0  0  0  0  0  0  0  0  0
    4.9406  -10.2570    0.0000 C   0  0  0  0  0  0  0  0  0  0  0  0
    5.2426   -7.4800    0.0000 C   0  0  0  0  0  0  0  0  0  0  0  0
    6.6716   -7.4800    0.0000 C   0  0  0  0  0  0  0  0  0  0  0  0
    4.1156  -10.2570    0.0000 C   0  0  0  0  0  0  0  0  0  0  0  0
    8.4025   -4.7030    0.0000 C   0  0  0  0  0  0  0  0  0  0  0  0
    5.2426   -9.9550    0.0000 H   0  0  0  0  0  0  0  0  0  0  0  0
    5.9571   -8.7175    0.0000 H   0  0  0  0  0  0  0  0  0  0  0  0
    7.3860   -8.7175    0.0000 C   0  0  0  0  0  0  0  0  0  0  0  0
    9.5294   -7.4800    0.0000 C   0  0  0  0  0  0  0  0  0  0  0  0
    7.3860   -6.2425    0.0000 H   0  0  0  0  0  0  0  0  0  0  0  0
   10.2439   -7.0675    0.0000 O   0  0  0  0  0  0  0  0  0  0  0  0
    9.5294   -8.3050    0.0000 O   0  0  0  0  0  0  0  0  0  0  0  0
  1  2  1  0  0  0  0
  2  3  1  0  0  0  0
  3  4  1  0  0  0  0
  4  5  1  0  0  0  0
  5  6  1  0  0  0  0
  6  1  1  0  0  0  0
  4  7  1  0  0  0  0
  7  8  1  0  0  0  0
  8  9  1  0  0  0  0
  9 10  1  0  0  0  0
 10  5  1  0  0  0  0
  9 11  1  0  0  0  0
 11 12  1  0  0  0  0
 12 13  2  0  0  0  0
 13 14  1  0  0  0  0
 14 10  1  0  0  0  0
 11 15  1  0  0  0  0
 15 16  1  0  0  0  0
 16 17  1  0  0  0  0
 17 18  1  0  0  0  0
 18 12  1  0  0  0  0
 17 19  1  0  0  0  0
 19 20  1  0  0  0  0
 20 21  1  0  0  0  0
 21 22  1  0  0  0  0
 22 18  1  0  0  0  0
  2 23  1  1  0  0  0
 21 24  1  0  0  0  0
 19 25  1  6  0  0  0
  3 26  1  0  0  0  0
  5 27  1  1  0  0  0
  9 28  1  1  0  0  0
  3 29  1  0  0  0  0
 21 30  1  0  0  0  0
  4 31  1  6  0  0  0
 10 32  1  6  0  0  0
 11 33  1  6  0  0  0
 17 34  1  1  0  0  0
 18 35  1  1  0  0  0
 34 36  1  0  0  0  0
 34 37  2  0  0  0  0
M  END
>  <cdx:fragmentId>
5

$$$$
