98424.cdx
  Mrv1902 05222410222D          

 22 22  0  0  0  0            999 V2000
   10.6542   -7.5130    0.0000 C   0  0  0  0  0  0  0  0  0  0  0  0
    9.9386   -7.1024    0.0000 C   0  0  2  0  0  0  0  0  0  0  0  0
    9.2252   -7.5169    0.0000 C   0  0  0  0  0  0  0  0  0  0  0  0
    8.5096   -7.1064    0.0000 C   0  0  0  0  0  0  0  0  0  0  0  0
    7.7963   -7.5208    0.0000 C   0  0  0  0  0  0  0  0  0  0  0  0
   10.6564   -8.3380    0.0000 O   0  0  0  0  0  0  0  0  0  0  0  0
   11.3675   -7.0985    0.0000 O   0  0  0  0  0  0  0  0  0  0  0  0
    7.7986   -8.3458    0.0000 O   0  0  0  0  0  0  0  0  0  0  0  0
    7.0807   -7.1103    0.0000 N   0  0  0  0  0  0  0  0  0  0  0  0
    6.3674   -7.5247    0.0000 C   0  0  1  0  0  0  0  0  0  0  0  0
    5.6518   -7.1142    0.0000 C   0  0  0  0  0  0  0  0  0  0  0  0
    4.9384   -7.5287    0.0000 C   0  0  0  0  0  0  0  0  0  0  0  0
    4.9407   -8.3537    0.0000 C   0  0  0  0  0  0  0  0  0  0  0  0
    4.2273   -8.7681    0.0000 C   0  0  0  0  0  0  0  0  0  0  0  0
    3.5117   -8.3576    0.0000 C   0  0  0  0  0  0  0  0  0  0  0  0
    3.5095   -7.5326    0.0000 C   0  0  0  0  0  0  0  0  0  0  0  0
    4.2228   -7.1181    0.0000 C   0  0  0  0  0  0  0  0  0  0  0  0
    2.7984   -8.7720    0.0000 O   0  0  0  0  0  0  0  0  0  0  0  0
    6.3696   -8.3497    0.0000 C   0  0  0  0  0  0  0  0  0  0  0  0
    5.6563   -8.7642    0.0000 O   0  0  0  0  0  0  0  0  0  0  0  0
    7.0852   -8.7603    0.0000 O   0  0  0  0  0  0  0  0  0  0  0  0
    9.9363   -6.2774    0.0000 N   0  0  0  0  0  0  0  0  0  0  0  0
  1  2  1  0  0  0  0
  2  3  1  0  0  0  0
  3  4  1  0  0  0  0
  4  5  1  0  0  0  0
  1  6  2  0  0  0  0
  1  7  1  0  0  0  0
  5  8  2  0  0  0  0
 10 11  1  0  0  0  0
 12 13  1  0  0  0  0
 13 14  2  0  0  0  0
 14 15  1  0  0  0  0
 15 16  2  0  0  0  0
 16 17  1  0  0  0  0
 12 17  2  0  0  0  0
 15 18  1  0  0  0  0
 11 12  1  0  0  0  0
 19 20  2  0  0  0  0
 19 21  1  0  0  0  0
 10 19  1  0  0  0  0
 10  9  1  6  0  0  0
  5  9  1  0  0  0  0
  2 22  1  6  0  0  0
M  END
>  <cdx:fragmentId>
27

$$$$
