98422.cdx
  Mrv1902 05222410212D          

 30 32  0  0  0  0            999 V2000
    5.9266   -7.2462    0.0000 C   0  0  0  0  0  0  0  0  0  0  0  0
    5.9266   -8.0713    0.0000 C   0  0  0  0  0  0  0  0  0  0  0  0
    6.5716   -8.5856    0.0000 C   0  0  0  0  0  0  0  0  0  0  0  0
    7.3759   -8.4020    0.0000 C   0  0  0  0  0  0  0  0  0  0  0  0
    7.7339   -7.6587    0.0000 C   0  0  0  0  0  0  0  0  0  0  0  0
    7.3759   -6.9155    0.0000 C   0  0  0  0  0  0  0  0  0  0  0  0
    6.5716   -6.7319    0.0000 C   0  0  0  0  0  0  0  0  0  0  0  0
    6.3880   -5.9276    0.0000 O   0  0  0  0  0  0  0  0  0  0  0  0
    7.8903   -6.2704    0.0000 C   0  0  0  0  0  0  0  0  0  0  0  0
    8.7061   -6.3934    0.0000 C   0  0  0  0  0  0  0  0  0  0  0  0
    7.5889   -5.5025    0.0000 O   0  0  0  0  0  0  0  0  0  0  0  0
    8.5589   -7.6587    0.0000 O   0  0  0  0  0  0  0  0  0  0  0  0
    9.0075   -7.1614    0.0000 C   0  0  0  0  0  0  0  0  0  0  0  0
    9.2205   -5.7484    0.0000 C   0  0  0  0  0  0  0  0  0  0  0  0
    5.1420   -6.9913    0.0000 C   0  0  0  0  0  0  0  0  0  0  0  0
    4.6570   -7.6587    0.0000 C   0  0  0  0  0  0  0  0  0  0  0  0
    5.1420   -8.3262    0.0000 C   0  0  0  0  0  0  0  0  0  0  0  0
    3.8320   -7.6587    0.0000 C   0  0  0  0  0  0  0  0  0  0  0  0
    3.0070   -7.6587    0.0000 O   0  0  0  0  0  0  0  0  0  0  0  0
    3.8320   -6.8338    0.0000 C   0  0  0  0  0  0  0  0  0  0  0  0
    3.8320   -8.4838    0.0000 C   0  0  0  0  0  0  0  0  0  0  0  0
    4.5586   -8.9096    0.0000 C   0  0  0  0  0  0  0  0  0  0  0  0
    5.3555   -9.1231    0.0000 C   0  0  0  0  0  0  0  0  0  0  0  0
    7.8903   -9.0471    0.0000 C   0  0  0  0  0  0  0  0  0  0  0  0
    7.5889   -9.8150    0.0000 C   0  0  0  0  0  0  0  0  0  0  0  0
    8.1033  -10.4600    0.0000 C   0  0  0  0  0  0  0  0  0  0  0  0
    7.8019  -11.2280    0.0000 C   0  0  0  0  0  0  0  0  0  0  0  0
    8.9190  -10.3371    0.0000 C   0  0  0  0  0  0  0  0  0  0  0  0
    7.0719   -7.4250    0.0000 C   0  0  0  0  0  0  0  0  0  0  0  0
    7.7864   -7.0125    0.0000 O   0  0  0  0  0  0  0  0  0  0  0  0
  1  2  1  0  0  0  0
  2  3  1  0  0  0  0
  3  4  1  0  0  0  0
  4  5  1  0  0  0  0
  5  6  1  0  0  0  0
  6  7  2  0  0  0  0
  7  1  1  0  0  0  0
  7  8  1  0  0  0  0
  6  9  1  0  0  0  0
  9 10  1  0  0  0  0
  9 11  2  0  0  0  0
  5 12  2  0  0  0  0
 10 13  1  0  0  0  0
 10 14  1  0  0  0  0
  1 15  1  0  0  0  0
 15 16  1  0  0  0  0
 16 17  1  0  0  0  0
 17  2  1  0  0  0  0
 16 18  1  0  0  0  0
 18 19  1  0  0  0  0
 18 20  1  0  0  0  0
 18 21  1  0  0  0  0
 17 22  1  0  0  0  0
 17 23  1  0  0  0  0
  4 24  1  0  0  0  0
 24 25  1  0  0  0  0
 25 26  2  0  0  0  0
 26 27  1  0  0  0  0
 26 28  1  0  0  0  0
  1 29  1  0  0  0  0
 29  4  1  0  0  0  0
 29 30  2  0  0  0  0
M  END
>  <cdx:fragmentId>
5

$$$$
