98431.cdx
  Mrv1902 05222410222D          

  8  8  0  0  0  0            999 V2000
    4.0909   -3.8547    0.0000 O   0  0  0  0  0  0  0  0  0  0  0  0
    3.5389   -3.2416    0.0000 C   0  0  0  0  0  0  0  0  0  0  0  0
    3.9514   -2.5271    0.0000 C   0  0  0  0  0  0  0  0  0  0  0  0
    4.7583   -2.6986    0.0000 C   0  0  0  0  0  0  0  0  0  0  0  0
    4.8446   -3.5191    0.0000 C   0  0  0  0  0  0  0  0  0  0  0  0
    2.7184   -3.3278    0.0000 O   0  0  0  0  0  0  0  0  0  0  0  0
    5.5590   -3.9316    0.0000 C   0  0  0  0  0  0  0  0  0  0  0  0
    6.2735   -3.5191    0.0000 O   0  0  0  0  0  0  0  0  0  0  0  0
  1  2  1  0  0  0  0
  2  3  1  0  0  0  0
  3  4  1  0  0  0  0
  4  5  1  0  0  0  0
  1  5  1  0  0  0  0
  2  6  2  0  0  0  0
  7  8  1  0  0  0  0
  5  7  1  0  0  0  0
M  END
>  <cdx:groupId>
26

>  <cdx:fragmentId>
5

$$$$
