98438.cdx
  Mrv1902 05222410242D          

 29 29  0  0  0  0            999 V2000
    7.5070   -6.3299    0.0000 O   0  0  0  0  0  0  0  0  0  0  0  0
   10.3047  -11.6663    0.0000 O   0  0  0  0  0  0  0  0  0  0  0  0
    7.0878   -5.6194    0.0000 C   0  0  0  0  0  0  0  0  0  0  0  0
    8.8447   -8.3799    0.0000 C   0  0  0  0  0  0  0  0  0  0  0  0
   10.2969  -10.8414    0.0000 C   0  0  0  0  0  0  0  0  0  0  0  0
    9.5941  -12.0855    0.0000 C   0  0  0  0  0  0  0  0  0  0  0  0
    9.5863  -11.2606    0.0000 C   0  0  0  0  0  0  0  0  0  0  0  0
    8.8680  -10.8548    0.0000 C   0  0  0  0  0  0  0  0  0  0  0  0
    8.8603  -10.0298    0.0000 C   0  0  0  0  0  0  0  0  0  0  0  0
    8.1419   -9.6241    0.0000 C   0  0  0  0  0  0  0  0  0  0  0  0
    8.1342   -8.7991    0.0000 C   0  0  0  0  0  0  0  0  0  0  0  0
    7.4158   -8.3934    0.0000 C   0  0  0  0  0  0  0  0  0  0  0  0
    7.4081   -7.5684    0.0000 C   0  0  0  0  0  0  0  0  0  0  0  0
    6.6898   -7.1626    0.0000 C   0  0  0  0  0  0  0  0  0  0  0  0
    6.6820   -6.3377    0.0000 C   0  0  1  0  0  0  0  0  0  0  0  0
    5.9637   -5.9319    0.0000 C   0  0  0  0  0  0  0  0  0  0  0  0
    5.9559   -5.1070    0.0000 C   0  0  0  0  0  0  0  0  0  0  0  0
    8.1460  -11.2769    0.0000 C   0  0  1  0  0  0  0  0  0  0  0  0
    8.1497  -12.1019    0.0000 C   0  0  2  0  0  0  0  0  0  0  0  0
    8.8661  -12.5111    0.0000 O   0  0  0  0  0  0  0  0  0  0  0  0
    7.4372  -12.5177    0.0000 C   0  0  1  0  0  0  0  0  0  0  0  0
    7.4409  -13.3427    0.0000 O   0  0  0  0  0  0  0  0  0  0  0  0
    6.7208  -12.1085    0.0000 C   0  0  2  0  0  0  0  0  0  0  0  0
    6.0082  -12.5242    0.0000 O   0  0  0  0  0  0  0  0  0  0  0  0
    6.7170  -11.2835    0.0000 C   0  0  2  0  0  0  0  0  0  0  0  0
    7.4296  -10.8677    0.0000 O   0  0  0  0  0  0  0  0  0  0  0  0
    6.0007  -10.8742    0.0000 C   0  0  0  0  0  0  0  0  0  0  0  0
    5.2881  -11.2900    0.0000 O   0  0  0  0  0  0  0  0  0  0  0  0
    8.1448  -10.4519    0.0000 H   0  0  0  0  0  0  0  0  0  0  0  0
 15  1  1  1  0  0  0
  7  2  1  0  0  0  0
 15  3  1  6  0  0  0
 11  4  1  0  0  0  0
  7  5  1  0  0  0  0
  7  6  1  0  0  0  0
  8  7  1  0  0  0  0
  9  8  1  0  0  0  0
 10  9  1  0  0  0  0
 11 10  1  0  0  0  0
 12 11  2  0  0  0  0
 13 12  1  0  0  0  0
 14 13  1  0  0  0  0
 15 14  1  0  0  0  0
 16 15  1  0  0  0  0
 17 16  2  0  0  0  0
 18 19  1  0  0  0  0
 19 20  1  6  0  0  0
 19 21  1  0  0  0  0
 21 22  1  1  0  0  0
 21 23  1  0  0  0  0
 23 24  1  6  0  0  0
 23 25  1  0  0  0  0
 25 26  1  0  0  0  0
 25 27  1  1  0  0  0
 27 28  1  0  0  0  0
 18 26  1  0  0  0  0
 18  8  1  0  0  0  0
 18 29  1  6  0  0  0
M  END
>  <cdx:fragmentId>
5

$$$$
