98434.cdx
  Mrv1902 05222410212D          

 38 44  0  0  0  0            999 V2000
    5.8074   -8.9925    0.0000 C   0  0  1  0  0  0  0  0  0  0  0  0
    5.8074   -9.8175    0.0000 C   0  0  0  0  0  0  0  0  0  0  0  0
    6.5219  -10.2300    0.0000 C   0  0  0  0  0  0  0  0  0  0  0  0
    7.2364   -9.8175    0.0000 C   0  0  0  0  0  0  0  0  0  0  0  0
    7.2364   -8.9925    0.0000 C   0  0  2  0  0  0  0  0  0  0  0  0
    6.5219   -8.5800    0.0000 C   0  0  2  0  0  0  0  0  0  0  0  0
    7.9508   -8.5800    0.0000 C   0  0  2  0  0  0  0  0  0  0  0  0
    7.9508   -7.7550    0.0000 C   0  0  1  0  0  0  0  0  0  0  0  0
    7.2364   -7.3425    0.0000 C   0  0  0  0  0  0  0  0  0  0  0  0
    6.5219   -7.7550    0.0000 C   0  0  0  0  0  0  0  0  0  0  0  0
    8.6653   -8.9925    0.0000 C   0  0  1  0  0  0  0  0  0  0  0  0
    9.3798   -8.5800    0.0000 C   0  0  0  0  0  0  0  0  0  0  0  0
    9.3798   -7.7550    0.0000 O   0  0  0  0  0  0  0  0  0  0  0  0
    8.6653   -7.3425    0.0000 C   0  0  1  0  0  0  0  0  0  0  0  0
    5.0228   -8.7376    0.0000 C   0  0  1  0  0  0  0  0  0  0  0  0
    4.5379   -9.4050    0.0000 O   0  0  0  0  0  0  0  0  0  0  0  0
    5.0228  -10.0724    0.0000 C   0  0  2  0  0  0  0  0  0  0  0  0
    8.6653   -6.5175    0.0000 C   0  0  0  0  0  0  0  0  0  0  0  0
    9.3328   -6.0326    0.0000 C   0  0  2  0  0  0  0  0  0  0  0  0
    9.0778   -5.2480    0.0000 O   0  0  0  0  0  0  0  0  0  0  0  0
    8.2528   -5.2480    0.0000 C   0  0  0  0  0  0  0  0  0  0  0  0
    7.9979   -6.0326    0.0000 C   0  0  0  0  0  0  0  0  0  0  0  0
   10.1174   -6.2875    0.0000 O   0  0  0  0  0  0  0  0  0  0  0  0
    7.7679   -4.5805    0.0000 O   0  0  0  0  0  0  0  0  0  0  0  0
   10.0943   -8.9925    0.0000 O   0  0  0  0  0  0  0  0  0  0  0  0
    7.9508   -9.4050    0.0000 O   0  0  0  0  0  0  0  0  0  0  0  0
    7.9508  -10.2300    0.0000 O   0  0  0  0  0  0  0  0  0  0  0  0
    6.5219  -11.0550    0.0000 O   0  0  0  0  0  0  0  0  0  0  0  0
    6.4205   -8.4405    0.0000 C   0  0  0  0  0  0  0  0  0  0  0  0
    6.2490   -7.6335    0.0000 O   0  0  0  0  0  0  0  0  0  0  0  0
    5.4644   -7.3786    0.0000 C   0  0  0  0  0  0  0  0  0  0  0  0
    4.8513   -7.9306    0.0000 C   0  0  0  0  0  0  0  0  0  0  0  0
    5.2928   -6.5716    0.0000 O   0  0  0  0  0  0  0  0  0  0  0  0
    7.2364   -8.1675    0.0000 C   0  0  0  0  0  0  0  0  0  0  0  0
    4.3083  -10.4849    0.0000 C   0  0  0  0  0  0  0  0  0  0  0  0
    5.0228  -10.8974    0.0000 C   0  0  0  0  0  0  0  0  0  0  0  0
    7.9508   -6.9300    0.0000 C   0  0  0  0  0  0  0  0  0  0  0  0
    6.5219   -9.4050    0.0000 H   0  0  0  0  0  0  0  0  0  0  0  0
  1  2  1  0  0  0  0
  2  3  2  0  0  0  0
  3  4  1  0  0  0  0
  4  5  1  0  0  0  0
  5  6  1  0  0  0  0
  6  1  1  0  0  0  0
  5  7  1  0  0  0  0
  7  8  1  0  0  0  0
  8  9  1  0  0  0  0
  9 10  1  0  0  0  0
 10  6  1  0  0  0  0
  7 11  1  0  0  0  0
 11 12  1  0  0  0  0
 12 13  1  0  0  0  0
 13 14  1  0  0  0  0
 14  8  1  0  0  0  0
  1 15  1  0  0  0  0
 15 16  1  0  0  0  0
 16 17  1  0  0  0  0
 17  2  1  0  0  0  0
 14 18  1  6  0  0  0
 18 19  1  0  0  0  0
 19 20  1  0  0  0  0
 20 21  1  0  0  0  0
 21 22  1  0  0  0  0
 22 18  2  0  0  0  0
 19 23  1  6  0  0  0
 21 24  2  0  0  0  0
 12 25  2  0  0  0  0
  7 26  1  1  0  0  0
 11 26  1  1  0  0  0
  4 27  2  0  0  0  0
  3 28  1  0  0  0  0
  1 29  1  1  0  0  0
 29 30  1  0  0  0  0
 30 31  1  0  0  0  0
 31 32  1  0  0  0  0
 15 32  1  1  0  0  0
 31 33  2  0  0  0  0
  5 34  1  1  0  0  0
 17 35  1  1  0  0  0
 17 36  1  6  0  0  0
  8 37  1  6  0  0  0
  6 38  1  6  0  0  0
M  END
>  <cdx:fragmentId>
5

$$$$
