98433.cdx
  Mrv1902 05222410232D          

 12 12  0  0  0  0            999 V2000
    4.6950   -8.8217    0.0000 C   0  0  0  0  0  0  0  0  0  0  0  0
    5.4095   -9.2342    0.0000 O   0  0  0  0  0  0  0  0  0  0  0  0
    9.6963   -7.5842    0.0000 C   0  0  0  0  0  0  0  0  0  0  0  0
    8.9818   -8.8217    0.0000 N   0  0  0  0  0  0  0  0  0  0  0  0
    8.2674   -7.5842    0.0000 C   0  0  0  0  0  0  0  0  0  0  0  0
    8.9818   -7.9967    0.0000 C   0  0  0  0  0  0  0  0  0  0  0  0
    7.5529   -8.8217    0.0000 C   0  0  0  0  0  0  0  0  0  0  0  0
    6.8384   -9.2342    0.0000 C   0  0  0  0  0  0  0  0  0  0  0  0
    6.1239   -8.8217    0.0000 C   0  0  0  0  0  0  0  0  0  0  0  0
    6.1239   -7.9967    0.0000 C   0  0  0  0  0  0  0  0  0  0  0  0
    6.8384   -7.5842    0.0000 C   0  0  0  0  0  0  0  0  0  0  0  0
    7.5529   -7.9967    0.0000 C   0  0  0  0  0  0  0  0  0  0  0  0
  9  2  1  0  0  0  0
  2  1  1  0  0  0  0
  6  3  1  0  0  0  0
 12  5  1  0  0  0  0
  6  4  1  0  0  0  0
  6  5  1  0  0  0  0
 12  7  2  0  0  0  0
  8  7  1  0  0  0  0
  9  8  2  0  0  0  0
 10  9  1  0  0  0  0
 11 10  2  0  0  0  0
 12 11  1  0  0  0  0
M  END
>  <cdx:fragmentId>
5

$$$$
