98436.cdx
  Mrv1902 05222410212D          

 12 12  0  0  0  0            999 V2000
    6.1099   -7.7275    0.0000 C   0  0  0  0  0  0  0  0  0  0  0  0
    6.1099   -8.5525    0.0000 C   0  0  0  0  0  0  0  0  0  0  0  0
    6.8244   -8.9650    0.0000 C   0  0  0  0  0  0  0  0  0  0  0  0
    7.5389   -8.5525    0.0000 C   0  0  0  0  0  0  0  0  0  0  0  0
    7.5389   -7.7275    0.0000 C   0  0  0  0  0  0  0  0  0  0  0  0
    6.8244   -7.3150    0.0000 C   0  0  0  0  0  0  0  0  0  0  0  0
    5.3955   -8.9650    0.0000 O   0  0  0  0  0  0  0  0  0  0  0  0
    5.3955   -7.3150    0.0000 O   0  0  0  0  0  0  0  0  0  0  0  0
    4.6810   -7.7275    0.0000 C   0  0  0  0  0  0  0  0  0  0  0  0
    8.2533   -7.3150    0.0000 C   0  0  0  0  0  0  0  0  0  0  0  0
    8.9678   -7.7275    0.0000 C   0  0  0  0  0  0  0  0  0  0  0  0
    9.6823   -7.3150    0.0000 C   0  0  0  0  0  0  0  0  0  0  0  0
  1  2  2  0  0  0  0
  2  3  1  0  0  0  0
  3  4  2  0  0  0  0
  4  5  1  0  0  0  0
  5  6  2  0  0  0  0
  6  1  1  0  0  0  0
  2  7  1  0  0  0  0
  1  8  1  0  0  0  0
  8  9  1  0  0  0  0
  5 10  1  0  0  0  0
 10 11  1  0  0  0  0
 11 12  2  0  0  0  0
M  END
>  <cdx:fragmentId>
5

$$$$
