98439.cdx
  Mrv1902 05222410252D          

 11 10  0  0  0  0            999 V2000
    8.2605   -7.1405    0.0000 C   0  0  0  0  0  0  0  0  0  0  0  0
    8.2505   -6.3156    0.0000 O   0  0  0  0  0  0  0  0  0  0  0  0
    6.8317   -7.1579    0.0000 N   0  0  0  0  0  0  0  0  0  0  0  0
    6.1625  -10.8788    0.0000 C   0  0  0  0  0  0  0  0  0  0  0  0
    6.1524  -10.0539    0.0000 C   0  0  0  0  0  0  0  0  0  0  0  0
    6.8618   -9.6327    0.0000 C   0  0  0  0  0  0  0  0  0  0  0  0
    6.1323   -8.4040    0.0000 O   0  0  0  0  0  0  0  0  0  0  0  0
    6.8518   -8.8078    0.0000 S   0  0  0  0  0  0  0  0  0  0  0  0
    8.9800   -7.5443    0.0000 O   0  0  0  0  0  0  0  0  0  0  0  0
    7.5612   -8.3866    0.0000 C   0  0  0  0  0  0  0  0  0  0  0  0
    7.5511   -7.5617    0.0000 C   0  0  1  0  0  0  0  0  0  0  0  0
 11  3  1  6  0  0  0
 10  8  1  0  0  0  0
  8  6  1  0  0  0  0
  5  4  1  0  0  0  0
  6  5  2  0  0  0  0
  8  7  2  0  0  0  0
 11 10  1  0  0  0  0
  1 11  1  0  0  0  0
  1  2  2  0  0  0  0
  1  9  1  0  0  0  0
M  END
>  <cdx:fragmentId>
19

$$$$
