98437.cdx
  Mrv1902 05222410202D          

 29 29  0  0  0  0            999 V2000
    5.5607   -4.2572    0.0000 C   0  0  0  0  0  0  0  0  0  0  0  0
    5.5607   -5.0822    0.0000 C   0  0  0  0  0  0  0  0  0  0  0  0
    6.2752   -5.4947    0.0000 C   0  0  0  0  0  0  0  0  0  0  0  0
    6.2752   -6.3197    0.0000 C   0  0  0  0  0  0  0  0  0  0  0  0
    6.9897   -6.7322    0.0000 C   0  0  0  0  0  0  0  0  0  0  0  0
    6.9897   -7.5572    0.0000 C   0  0  0  0  0  0  0  0  0  0  0  0
    7.7041   -7.9697    0.0000 C   0  0  0  0  0  0  0  0  0  0  0  0
    7.7041   -8.7947    0.0000 C   0  0  0  0  0  0  0  0  0  0  0  0
    8.4186   -9.2072    0.0000 C   0  0  0  0  0  0  0  0  0  0  0  0
    8.4186  -10.0322    0.0000 C   0  0  0  0  0  0  0  0  0  0  0  0
    9.1331  -10.4447    0.0000 C   0  0  0  0  0  0  0  0  0  0  0  0
    9.8475  -10.0322    0.0000 C   0  0  0  0  0  0  0  0  0  0  0  0
    9.1331  -11.2697    0.0000 C   0  0  0  0  0  0  0  0  0  0  0  0
    8.4186   -7.5572    0.0000 C   0  0  0  0  0  0  0  0  0  0  0  0
    6.9897   -5.0822    0.0000 C   0  0  0  0  0  0  0  0  0  0  0  0
    9.8475  -10.8572    0.0000 O   0  0  0  0  0  0  0  0  0  0  0  0
    4.8463   -3.8447    0.0000 O   0  0  0  0  0  0  0  0  0  0  0  0
    7.7041  -10.4447    0.0000 C   0  0  1  0  0  0  0  0  0  0  0  0
    7.7041  -11.2697    0.0000 C   0  0  2  0  0  0  0  0  0  0  0  0
    8.4186  -11.6822    0.0000 O   0  0  0  0  0  0  0  0  0  0  0  0
    6.9897  -11.6822    0.0000 C   0  0  1  0  0  0  0  0  0  0  0  0
    6.9897  -12.5072    0.0000 O   0  0  0  0  0  0  0  0  0  0  0  0
    6.2752  -11.2697    0.0000 C   0  0  2  0  0  0  0  0  0  0  0  0
    5.5607  -11.6822    0.0000 O   0  0  0  0  0  0  0  0  0  0  0  0
    6.2752  -10.4447    0.0000 C   0  0  2  0  0  0  0  0  0  0  0  0
    6.9897  -10.0322    0.0000 O   0  0  0  0  0  0  0  0  0  0  0  0
    5.5607  -10.0322    0.0000 C   0  0  0  0  0  0  0  0  0  0  0  0
    4.8463  -10.4447    0.0000 O   0  0  0  0  0  0  0  0  0  0  0  0
    7.7041   -9.6197    0.0000 H   0  0  0  0  0  0  0  0  0  0  0  0
  1  2  1  0  0  0  0
  2  3  2  0  0  0  0
  3  4  1  0  0  0  0
  4  5  1  0  0  0  0
  5  6  1  0  0  0  0
  6  7  2  0  0  0  0
  7  8  1  0  0  0  0
  8  9  1  0  0  0  0
  9 10  1  0  0  0  0
 10 11  1  0  0  0  0
 11 12  1  0  0  0  0
 11 13  1  0  0  0  0
  7 14  1  0  0  0  0
  3 15  1  0  0  0  0
 11 16  1  0  0  0  0
  1 17  1  0  0  0  0
 18 19  1  0  0  0  0
 19 20  1  6  0  0  0
 19 21  1  0  0  0  0
 21 22  1  1  0  0  0
 21 23  1  0  0  0  0
 23 24  1  6  0  0  0
 23 25  1  0  0  0  0
 25 26  1  0  0  0  0
 25 27  1  1  0  0  0
 27 28  1  0  0  0  0
 18 26  1  0  0  0  0
 10 18  1  0  0  0  0
 18 29  1  6  0  0  0
M  END
>  <cdx:fragmentId>
5

$$$$
