98446.cdx
  Mrv1902 05222410192D          

 50 53  0  0  0  0            999 V2000
    4.9137   -6.0225    0.0000 C   0  0  0  0  0  0  0  0  0  0  0  0
    4.9137   -6.8475    0.0000 C   0  0  0  0  0  0  0  0  0  0  0  0
    5.6281   -7.2600    0.0000 C   0  0  0  0  0  0  0  0  0  0  0  0
    6.3426   -6.8475    0.0000 C   0  0  0  0  0  0  0  0  0  0  0  0
    6.3426   -6.0225    0.0000 C   0  0  0  0  0  0  0  0  0  0  0  0
    5.6281   -5.6100    0.0000 C   0  0  0  0  0  0  0  0  0  0  0  0
    4.1992   -5.6100    0.0000 O   0  0  0  0  0  0  0  0  0  0  0  0
    3.4847   -6.0225    0.0000 C   0  0  0  0  0  0  0  0  0  0  0  0
    4.1992   -7.2600    0.0000 O   0  0  0  0  0  0  0  0  0  0  0  0
    7.0571   -5.6100    0.0000 C   0  0  0  0  0  0  0  0  0  0  0  0
    7.7716   -6.0225    0.0000 O   0  0  0  0  0  0  0  0  0  0  0  0
    7.0571   -4.7850    0.0000 O   0  0  0  0  0  0  0  0  0  0  0  0
    7.7716   -6.8475    0.0000 C   0  0  0  0  0  0  0  0  0  0  0  0
    8.4860   -7.2600    0.0000 C   0  0  2  0  0  0  0  0  0  0  0  0
    9.2005   -6.8475    0.0000 C   0  0  0  0  0  0  0  0  0  0  0  0
    8.4860   -8.0850    0.0000 C   0  0  2  0  0  0  0  0  0  0  0  0
    9.2005   -8.4975    0.0000 C   0  0  1  0  0  0  0  0  0  0  0  0
    9.9150   -8.0850    0.0000 O   0  0  0  0  0  0  0  0  0  0  0  0
    9.9150   -7.2600    0.0000 C   0  0  0  0  0  0  0  0  0  0  0  0
    9.2005   -6.0225    0.0000 C   0  0  0  0  0  0  0  0  0  0  0  0
    8.4860   -5.6100    0.0000 O   0  0  0  0  0  0  0  0  0  0  0  0
    9.9150   -5.6100    0.0000 O   0  0  0  0  0  0  0  0  0  0  0  0
    9.9150   -4.7850    0.0000 C   0  0  0  0  0  0  0  0  0  0  0  0
    7.7716   -8.4975    0.0000 C   0  0  0  0  0  0  0  0  0  0  0  0
    7.7716   -9.3225    0.0000 C   0  0  0  0  0  0  0  0  0  0  0  0
    9.2005   -9.3225    0.0000 O   0  0  0  0  0  0  0  0  0  0  0  0
    8.4860   -6.4350    0.0000 H   0  0  0  0  0  0  0  0  0  0  0  0
    8.4860   -8.9100    0.0000 H   0  0  0  0  0  0  0  0  0  0  0  0
    4.1992   -8.0850    0.0000 C   0  0  2  0  0  0  0  0  0  0  0  0
    3.4847   -8.4975    0.0000 O   0  0  0  0  0  0  0  0  0  0  0  0
    3.4847   -9.3225    0.0000 C   0  0  1  0  0  0  0  0  0  0  0  0
    4.1992   -9.7350    0.0000 C   0  0  2  0  0  0  0  0  0  0  0  0
    4.9137   -9.3225    0.0000 C   0  0  1  0  0  0  0  0  0  0  0  0
    4.9137   -8.4975    0.0000 C   0  0  1  0  0  0  0  0  0  0  0  0
    2.7703   -9.7350    0.0000 C   0  0  0  0  0  0  0  0  0  0  0  0
    5.6281   -9.7350    0.0000 O   0  0  0  0  0  0  0  0  0  0  0  0
    5.6281   -8.0850    0.0000 O   0  0  0  0  0  0  0  0  0  0  0  0
    4.1992  -10.5600    0.0000 O   0  0  0  0  0  0  0  0  0  0  0  0
    2.7703  -10.5600    0.0000 O   0  0  0  0  0  0  0  0  0  0  0  0
    9.9176   -9.7290    0.0000 C   0  0  2  0  0  0  0  0  0  0  0  0
    9.9176  -10.5540    0.0000 O   0  0  0  0  0  0  0  0  0  0  0  0
   10.6321  -10.9665    0.0000 C   0  0  1  0  0  0  0  0  0  0  0  0
   11.3466  -10.5540    0.0000 C   0  0  2  0  0  0  0  0  0  0  0  0
   11.3466   -9.7290    0.0000 C   0  0  1  0  0  0  0  0  0  0  0  0
   10.6321   -9.3165    0.0000 C   0  0  1  0  0  0  0  0  0  0  0  0
   10.6321  -11.7915    0.0000 C   0  0  0  0  0  0  0  0  0  0  0  0
   12.0610   -9.3165    0.0000 O   0  0  0  0  0  0  0  0  0  0  0  0
   10.6321   -8.4915    0.0000 O   0  0  0  0  0  0  0  0  0  0  0  0
   12.0610  -10.9665    0.0000 O   0  0  0  0  0  0  0  0  0  0  0  0
   11.3466  -12.2040    0.0000 O   0  0  0  0  0  0  0  0  0  0  0  0
  1  2  2  0  0  0  0
  2  3  1  0  0  0  0
  3  4  2  0  0  0  0
  4  5  1  0  0  0  0
  5  6  2  0  0  0  0
  6  1  1  0  0  0  0
  1  7  1  0  0  0  0
  7  8  1  0  0  0  0
  2  9  1  0  0  0  0
  5 10  1  0  0  0  0
 10 11  1  0  0  0  0
 10 12  2  0  0  0  0
 11 13  1  0  0  0  0
 13 14  1  0  0  0  0
 14 15  1  0  0  0  0
 14 16  1  0  0  0  0
 16 17  1  0  0  0  0
 17 18  1  0  0  0  0
 18 19  1  0  0  0  0
 19 15  2  0  0  0  0
 15 20  1  0  0  0  0
 20 21  2  0  0  0  0
 20 22  1  0  0  0  0
 22 23  1  0  0  0  0
 16 24  1  0  0  0  0
 24 25  2  0  0  0  0
 17 26  1  1  0  0  0
 14 27  1  1  0  0  0
 16 28  1  1  0  0  0
 29  9  1  1  0  0  0
 29 30  1  0  0  0  0
 30 31  1  0  0  0  0
 31 32  1  0  0  0  0
 32 33  1  0  0  0  0
 33 34  1  0  0  0  0
 34 29  1  0  0  0  0
 31 35  1  1  0  0  0
 33 36  1  1  0  0  0
 34 37  1  6  0  0  0
 32 38  1  6  0  0  0
 35 39  1  0  0  0  0
 40 41  1  0  0  0  0
 41 42  1  0  0  0  0
 42 43  1  0  0  0  0
 43 44  1  0  0  0  0
 44 45  1  0  0  0  0
 45 40  1  0  0  0  0
 42 46  1  1  0  0  0
 44 47  1  1  0  0  0
 45 48  1  6  0  0  0
 43 49  1  6  0  0  0
 46 50  1  0  0  0  0
 40 26  1  1  0  0  0
M  END
>  <cdx:fragmentId>
5

$$$$
