98447.cdx
  Mrv1902 05222410202D          

 43 47  0  0  0  0            999 V2000
   11.3832   -6.4022    0.0000 O   0  0  0  0  0  0  0  0  0  0  0  0
   11.3832   -4.7522    0.0000 O   0  0  0  0  0  0  0  0  0  0  0  0
    9.2398   -5.1647    0.0000 C   0  0  0  0  0  0  0  0  0  0  0  0
    9.9542   -4.7522    0.0000 C   0  0  0  0  0  0  0  0  0  0  0  0
   10.6687   -5.1647    0.0000 C   0  0  0  0  0  0  0  0  0  0  0  0
   10.6687   -5.9897    0.0000 C   0  0  0  0  0  0  0  0  0  0  0  0
    9.9542   -6.4022    0.0000 C   0  0  0  0  0  0  0  0  0  0  0  0
    9.2398   -5.9897    0.0000 C   0  0  0  0  0  0  0  0  0  0  0  0
    6.3819   -8.4647    0.0000 O   0  0  0  0  0  0  0  0  0  0  0  0
    4.9529   -5.9897    0.0000 O   0  0  0  0  0  0  0  0  0  0  0  0
    4.2385   -9.7022    0.0000 O   0  0  0  0  0  0  0  0  0  0  0  0
    2.8095   -7.2272    0.0000 C   0  0  0  0  0  0  0  0  0  0  0  0
    2.8095   -8.8772    0.0000 O   0  0  0  0  0  0  0  0  0  0  0  0
    7.0964   -9.7022    0.0000 O   0  0  0  0  0  0  0  0  0  0  0  0
    7.0964  -11.3522    0.0000 O   0  0  0  0  0  0  0  0  0  0  0  0
    5.6674  -12.1772    0.0000 O   0  0  0  0  0  0  0  0  0  0  0  0
    4.2385  -11.3522    0.0000 C   0  0  0  0  0  0  0  0  0  0  0  0
    4.9529  -10.9397    0.0000 C   0  0  0  0  0  0  0  0  0  0  0  0
    5.6674  -11.3522    0.0000 C   0  0  1  0  0  0  0  0  0  0  0  0
    6.3819  -10.9397    0.0000 C   0  0  1  0  0  0  0  0  0  0  0  0
    6.3819  -10.1147    0.0000 C   0  0  0  0  0  0  0  0  0  0  0  0
    5.6674   -9.7022    0.0000 C   0  0  1  0  0  0  0  0  0  0  0  0
    4.9529  -10.1147    0.0000 O   0  0  0  0  0  0  0  0  0  0  0  0
    5.6674   -8.8772    0.0000 O   0  0  0  0  0  0  0  0  0  0  0  0
    3.5240   -7.6397    0.0000 C   0  0  0  0  0  0  0  0  0  0  0  0
    3.5240   -8.4647    0.0000 C   0  0  0  0  0  0  0  0  0  0  0  0
    4.2385   -8.8772    0.0000 C   0  0  1  0  0  0  0  0  0  0  0  0
    4.9529   -8.4647    0.0000 C   0  0  0  0  0  0  0  0  0  0  0  0
    4.9529   -7.6397    0.0000 C   0  0  2  0  0  0  0  0  0  0  0  0
    4.2385   -7.2272    0.0000 O   0  0  0  0  0  0  0  0  0  0  0  0
    7.8108   -8.4647    0.0000 O   0  0  0  0  0  0  0  0  0  0  0  0
    7.8108   -5.9897    0.0000 O   0  0  0  0  0  0  0  0  0  0  0  0
    7.0964   -6.4022    0.0000 C   0  0  0  0  0  0  0  0  0  0  0  0
    6.3819   -5.9897    0.0000 C   0  0  0  0  0  0  0  0  0  0  0  0
    5.6674   -6.4022    0.0000 C   0  0  0  0  0  0  0  0  0  0  0  0
    5.6674   -7.2272    0.0000 C   0  0  0  0  0  0  0  0  0  0  0  0
    6.3819   -7.6397    0.0000 C   0  0  0  0  0  0  0  0  0  0  0  0
    7.0964   -7.2272    0.0000 C   0  0  0  0  0  0  0  0  0  0  0  0
    7.8108   -7.6397    0.0000 C   0  0  0  0  0  0  0  0  0  0  0  0
    8.5253   -7.2272    0.0000 C   0  0  0  0  0  0  0  0  0  0  0  0
    8.5253   -6.4022    0.0000 C   0  0  0  0  0  0  0  0  0  0  0  0
    9.2398   -7.6397    0.0000 O   0  0  0  0  0  0  0  0  0  0  0  0
    9.2398   -8.4647    0.0000 C   0  0  0  0  0  0  0  0  0  0  0  0
 41  8  1  0  0  0  0
  6  1  1  0  0  0  0
  5  2  1  0  0  0  0
  8  3  2  0  0  0  0
  4  3  1  0  0  0  0
  5  4  2  0  0  0  0
  6  5  1  0  0  0  0
  7  6  2  0  0  0  0
  8  7  1  0  0  0  0
 37  9  1  0  0  0  0
 35 10  1  0  0  0  0
 29 36  1  6  0  0  0
 27 11  1  1  0  0  0
 25 12  1  0  0  0  0
 26 13  2  0  0  0  0
 28 24  1  0  0  0  0
 22 24  1  1  0  0  0
 21 14  1  0  0  0  0
 20 15  1  1  0  0  0
 19 16  1  1  0  0  0
 18 17  1  0  0  0  0
 23 18  1  0  0  0  0
 19 18  1  0  0  0  0
 20 19  1  0  0  0  0
 21 20  1  0  0  0  0
 22 21  1  0  0  0  0
 23 22  1  0  0  0  0
 30 25  1  0  0  0  0
 26 25  1  0  0  0  0
 27 26  1  0  0  0  0
 28 27  1  0  0  0  0
 29 28  1  0  0  0  0
 30 29  1  0  0  0  0
 39 31  2  0  0  0  0
 41 32  1  0  0  0  0
 33 32  1  0  0  0  0
 38 33  2  0  0  0  0
 34 33  1  0  0  0  0
 35 34  2  0  0  0  0
 36 35  1  0  0  0  0
 37 36  2  0  0  0  0
 38 37  1  0  0  0  0
 39 38  1  0  0  0  0
 40 39  1  0  0  0  0
 41 40  2  0  0  0  0
 40 42  1  0  0  0  0
 42 43  1  0  0  0  0
M  END
>  <cdx:fragmentId>
41

$$$$
