98448.cdx
  Mrv1902 05222410262D          

 19 22  0  0  0  0            999 V2000
    5.6149   -7.6863    0.0000 C   0  0  0  0  0  0  0  0  0  0  0  0
    5.6149   -8.5113    0.0000 C   0  0  0  0  0  0  0  0  0  0  0  0
    6.3294   -8.9238    0.0000 N   0  0  0  0  0  0  0  0  0  0  0  0
    7.0439   -8.5113    0.0000 C   0  0  0  0  0  0  0  0  0  0  0  0
    7.0439   -7.6863    0.0000 C   0  0  0  0  0  0  0  0  0  0  0  0
    6.3294   -7.2738    0.0000 C   0  0  0  0  0  0  0  0  0  0  0  0
    7.7583   -8.9238    0.0000 C   0  0  0  0  0  0  0  0  0  0  0  0
    8.4728   -8.5113    0.0000 C   0  0  0  0  0  0  0  0  0  0  0  0
    8.4728   -7.6863    0.0000 C   0  0  0  0  0  0  0  0  0  0  0  0
    7.7583   -7.2738    0.0000 C   0  0  0  0  0  0  0  0  0  0  0  0
    6.3294   -9.7487    0.0000 C   0  0  0  0  0  0  0  0  0  0  0  0
    7.0439  -10.1612    0.0000 C   0  0  0  0  0  0  0  0  0  0  0  0
    7.7583   -9.7487    0.0000 C   0  0  0  0  0  0  0  0  0  0  0  0
    9.1873   -8.9238    0.0000 O   0  0  0  0  0  0  0  0  0  0  0  0
    9.1873   -7.2738    0.0000 O   0  0  0  0  0  0  0  0  0  0  0  0
    7.5448   -6.4769    0.0000 C   0  0  0  0  0  0  0  0  0  0  0  0
    6.7198   -6.4769    0.0000 C   0  0  0  0  0  0  0  0  0  0  0  0
    6.4605   -7.9279    0.0000 C   0  0  0  0  0  0  0  0  0  0  0  0
    6.1902   -5.8443    0.0000 C   0  0  0  0  0  0  0  0  0  0  0  0
  1  2  1  0  0  0  0
  2  3  1  0  0  0  0
  3  4  1  0  0  0  0
  4  5  1  0  0  0  0
  5  6  2  0  0  0  0
  6  1  1  0  0  0  0
  4  7  1  0  0  0  0
  7  8  1  0  0  0  0
  8  9  1  0  0  0  0
  9 10  1  0  0  0  0
 10  5  1  0  0  0  0
  3 11  1  0  0  0  0
 11 12  1  0  0  0  0
 12 13  1  0  0  0  0
 13  7  1  0  0  0  0
  8 14  2  0  0  0  0
  9 15  1  0  0  0  0
 10 16  1  0  0  0  0
 16 17  2  0  0  0  0
  4 18  1  0  0  0  0
 18 17  1  0  0  0  0
 17 19  1  0  0  0  0
M  END
>  <cdx:fragmentId>
5

$$$$
