98449.cdx
  Mrv1902 05222410262D          

 38 40  0  0  0  0            999 V2000
    5.3669   -9.0612    0.0000 C   0  0  0  0  0  0  0  0  0  0  0  0
    6.0814   -9.4737    0.0000 C   0  0  0  0  0  0  0  0  0  0  0  0
    6.0814  -10.2987    0.0000 C   0  0  2  0  0  0  0  0  0  0  0  0
    5.3669  -10.7112    0.0000 C   0  0  2  0  0  0  0  0  0  0  0  0
    4.6524  -10.2987    0.0000 C   0  0  1  0  0  0  0  0  0  0  0  0
    4.6524   -9.4737    0.0000 C   0  0  0  0  0  0  0  0  0  0  0  0
    5.3669   -8.2362    0.0000 C   0  0  0  0  0  0  0  0  0  0  0  0
    4.6524   -7.8237    0.0000 O   0  0  0  0  0  0  0  0  0  0  0  0
    6.0814   -7.8237    0.0000 O   0  0  0  0  0  0  0  0  0  0  0  0
    5.3669  -11.5362    0.0000 O   0  0  0  0  0  0  0  0  0  0  0  0
    6.0814   -8.6487    0.0000 O   0  0  0  0  0  0  0  0  0  0  0  0
    3.9380  -10.7112    0.0000 O   0  0  0  0  0  0  0  0  0  0  0  0
    6.7958  -10.7112    0.0000 O   0  0  0  0  0  0  0  0  0  0  0  0
    7.5103  -10.2987    0.0000 C   0  0  0  0  0  0  0  0  0  0  0  0
    8.2248  -10.7112    0.0000 C   0  0  0  0  0  0  0  0  0  0  0  0
    8.9393  -10.2988    0.0000 C   0  0  0  0  0  0  0  0  0  0  0  0
    7.5103   -9.4737    0.0000 O   0  0  0  0  0  0  0  0  0  0  0  0
    9.6537  -10.7112    0.0000 C   0  0  0  0  0  0  0  0  0  0  0  0
   10.3682  -10.2988    0.0000 C   0  0  0  0  0  0  0  0  0  0  0  0
   11.0827  -10.7112    0.0000 C   0  0  0  0  0  0  0  0  0  0  0  0
   11.0827  -11.5362    0.0000 C   0  0  0  0  0  0  0  0  0  0  0  0
   10.3682  -11.9488    0.0000 C   0  0  0  0  0  0  0  0  0  0  0  0
    9.6537  -11.5362    0.0000 C   0  0  0  0  0  0  0  0  0  0  0  0
   11.7971  -11.9488    0.0000 O   0  0  0  0  0  0  0  0  0  0  0  0
   11.7971  -10.2988    0.0000 O   0  0  0  0  0  0  0  0  0  0  0  0
    6.0814   -6.9987    0.0000 C   0  0  0  0  0  0  0  0  0  0  0  0
    6.7938   -8.2281    0.0000 C   0  0  0  0  0  0  0  0  0  0  0  0
    6.7945   -7.4031    0.0000 C   0  0  0  0  0  0  0  0  0  0  0  0
    7.5093   -6.9912    0.0000 C   0  0  0  0  0  0  0  0  0  0  0  0
    7.5080   -8.6412    0.0000 O   0  0  0  0  0  0  0  0  0  0  0  0
    7.5100   -6.1662    0.0000 C   0  0  0  0  0  0  0  0  0  0  0  0
    8.2248   -5.7543    0.0000 C   0  0  0  0  0  0  0  0  0  0  0  0
    8.2254   -4.9293    0.0000 C   0  0  0  0  0  0  0  0  0  0  0  0
    7.5113   -4.5162    0.0000 C   0  0  0  0  0  0  0  0  0  0  0  0
    6.7965   -4.9282    0.0000 C   0  0  0  0  0  0  0  0  0  0  0  0
    6.7958   -5.7531    0.0000 C   0  0  0  0  0  0  0  0  0  0  0  0
    7.5120   -3.6912    0.0000 O   0  0  0  0  0  0  0  0  0  0  0  0
    8.9402   -4.5174    0.0000 O   0  0  0  0  0  0  0  0  0  0  0  0
  1  2  1  0  0  0  0
  2  3  1  0  0  0  0
  3  4  1  0  0  0  0
  4  5  1  0  0  0  0
  5  6  1  0  0  0  0
  1  6  1  0  0  0  0
  7  8  2  0  0  0  0
  7  9  1  0  0  0  0
  1  7  1  0  0  0  0
  4 10  1  1  0  0  0
  1 11  1  0  0  0  0
  5 12  1  6  0  0  0
 14 15  1  0  0  0  0
 15 16  2  0  0  0  0
 14 17  2  0  0  0  0
 18 19  1  0  0  0  0
 19 20  2  0  0  0  0
 20 21  1  0  0  0  0
 21 22  2  0  0  0  0
 22 23  1  0  0  0  0
 18 23  2  0  0  0  0
 21 24  1  0  0  0  0
 20 25  1  0  0  0  0
 16 18  1  0  0  0  0
 13 14  1  0  0  0  0
  3 13  1  1  0  0  0
  9 26  1  0  0  0  0
 27 28  1  0  0  0  0
 28 29  2  0  0  0  0
 27 30  2  0  0  0  0
 31 32  1  0  0  0  0
 32 33  2  0  0  0  0
 33 34  1  0  0  0  0
 34 35  2  0  0  0  0
 35 36  1  0  0  0  0
 31 36  2  0  0  0  0
 34 37  1  0  0  0  0
 33 38  1  0  0  0  0
 29 31  1  0  0  0  0
 27 11  1  0  0  0  0
M  END
>  <cdx:fragmentId>
37

$$$$
