98444.cdx
  Mrv1902 05222410202D          

 64 69  0  0  0  0            999 V2000
   15.8020   -6.9919    0.0000 C   0  0  0  0  0  0  0  0  0  0  0  0
   15.8020   -7.8169    0.0000 O   0  0  0  0  0  0  0  0  0  0  0  0
   16.5165   -8.2294    0.0000 C   0  0  2  0  0  0  0  0  0  0  0  0
   17.2310   -7.8169    0.0000 C   0  0  1  0  0  0  0  0  0  0  0  0
   17.2310   -6.9919    0.0000 C   0  0  1  0  0  0  0  0  0  0  0  0
   16.5165   -6.5794    0.0000 C   0  0  0  0  0  0  0  0  0  0  0  0
   17.9454   -6.5794    0.0000 C   0  0  0  0  0  0  0  0  0  0  0  0
   17.9454   -5.7544    0.0000 C   0  0  0  0  0  0  0  0  0  0  0  0
   17.2310   -5.3419    0.0000 O   0  0  0  0  0  0  0  0  0  0  0  0
   16.5165   -5.7544    0.0000 C   0  0  0  0  0  0  0  0  0  0  0  0
   15.0876   -9.0544    0.0000 O   0  0  0  0  0  0  0  0  0  0  0  0
   15.8020   -9.4669    0.0000 C   0  0  1  0  0  0  0  0  0  0  0  0
   16.5165   -9.0544    0.0000 O   0  0  0  0  0  0  0  0  0  0  0  0
   14.3731   -9.4669    0.0000 C   0  0  1  0  0  0  0  0  0  0  0  0
   14.3731  -10.2919    0.0000 C   0  0  2  0  0  0  0  0  0  0  0  0
   15.0876  -10.7044    0.0000 C   0  0  1  0  0  0  0  0  0  0  0  0
   15.8020  -10.2919    0.0000 C   0  0  1  0  0  0  0  0  0  0  0  0
   15.8020   -5.3419    0.0000 O   0  0  0  0  0  0  0  0  0  0  0  0
   17.9454   -8.2294    0.0000 C   0  0  0  0  0  0  0  0  0  0  0  0
   17.9454   -9.0544    0.0000 C   0  0  0  0  0  0  0  0  0  0  0  0
   13.6586   -9.0544    0.0000 C   0  0  0  0  0  0  0  0  0  0  0  0
   13.6586   -8.2294    0.0000 O   0  0  0  0  0  0  0  0  0  0  0  0
   15.0876  -11.5294    0.0000 O   0  0  0  0  0  0  0  0  0  0  0  0
   13.6586  -10.7044    0.0000 O   0  0  0  0  0  0  0  0  0  0  0  0
   16.5165  -10.7044    0.0000 O   0  0  0  0  0  0  0  0  0  0  0  0
   17.9454   -7.4044    0.0000 O   0  0  0  0  0  0  0  0  0  0  0  0
   17.2310  -10.2919    0.0000 C   0  0  0  0  0  0  0  0  0  0  0  0
   17.9454  -10.7044    0.0000 C   0  0  0  0  0  0  0  0  0  0  0  0
   17.2310   -9.4669    0.0000 O   0  0  0  0  0  0  0  0  0  0  0  0
   15.8020  -11.9419    0.0000 C   0  0  0  0  0  0  0  0  0  0  0  0
   15.8020  -12.7669    0.0000 O   0  0  0  0  0  0  0  0  0  0  0  0
   16.5165  -11.5294    0.0000 C   0  0  0  0  0  0  0  0  0  0  0  0
   12.9441  -10.2919    0.0000 C   0  0  0  0  0  0  0  0  0  0  0  0
   12.2297  -10.7044    0.0000 C   0  0  0  0  0  0  0  0  0  0  0  0
   12.9441   -9.4669    0.0000 O   0  0  0  0  0  0  0  0  0  0  0  0
   11.5152  -10.2919    0.0000 C   0  0  0  0  0  0  0  0  0  0  0  0
   10.8007  -10.7044    0.0000 C   0  0  0  0  0  0  0  0  0  0  0  0
   10.8007  -11.5294    0.0000 C   0  0  0  0  0  0  0  0  0  0  0  0
   11.5152  -11.9419    0.0000 C   0  0  0  0  0  0  0  0  0  0  0  0
   12.2297  -11.5294    0.0000 C   0  0  0  0  0  0  0  0  0  0  0  0
   11.5152   -9.4669    0.0000 O   0  0  0  0  0  0  0  0  0  0  0  0
   10.0863  -10.2919    0.0000 O   0  0  0  0  0  0  0  0  0  0  0  0
    9.3718  -10.7044    0.0000 C   0  0  2  0  0  0  0  0  0  0  0  0
    8.6573  -10.2919    0.0000 O   0  0  0  0  0  0  0  0  0  0  0  0
    7.9428  -10.7044    0.0000 C   0  0  1  0  0  0  0  0  0  0  0  0
    7.9428  -11.5294    0.0000 C   0  0  2  0  0  0  0  0  0  0  0  0
    8.6573  -11.9419    0.0000 C   0  0  1  0  0  0  0  0  0  0  0  0
    9.3718  -11.5294    0.0000 C   0  0  1  0  0  0  0  0  0  0  0  0
    7.2284  -10.2919    0.0000 C   0  0  0  0  0  0  0  0  0  0  0  0
    8.6573  -12.7669    0.0000 O   0  0  0  0  0  0  0  0  0  0  0  0
   10.0863  -11.9419    0.0000 O   0  0  0  0  0  0  0  0  0  0  0  0
    7.2284  -11.9419    0.0000 O   0  0  0  0  0  0  0  0  0  0  0  0
    6.5139  -10.7044    0.0000 O   0  0  0  0  0  0  0  0  0  0  0  0
    5.7994  -10.2919    0.0000 C   0  0  2  0  0  0  0  0  0  0  0  0
    5.7994   -9.4669    0.0000 O   0  0  0  0  0  0  0  0  0  0  0  0
    5.0850   -9.0544    0.0000 C   0  0  1  0  0  0  0  0  0  0  0  0
    4.3705   -9.4669    0.0000 C   0  0  2  0  0  0  0  0  0  0  0  0
    4.3705  -10.2919    0.0000 C   0  0  1  0  0  0  0  0  0  0  0  0
    5.0850  -10.7044    0.0000 C   0  0  1  0  0  0  0  0  0  0  0  0
    5.0850   -8.2294    0.0000 C   0  0  0  0  0  0  0  0  0  0  0  0
    3.6560  -10.7044    0.0000 O   0  0  0  0  0  0  0  0  0  0  0  0
    3.6560   -9.0544    0.0000 O   0  0  0  0  0  0  0  0  0  0  0  0
    4.3705   -7.8169    0.0000 O   0  0  0  0  0  0  0  0  0  0  0  0
    5.0850  -11.5294    0.0000 O   0  0  0  0  0  0  0  0  0  0  0  0
  1  2  1  0  0  0  0
  2  3  1  0  0  0  0
  3  4  1  0  0  0  0
  4  5  1  0  0  0  0
  5  6  1  0  0  0  0
  6  1  2  0  0  0  0
  5  7  1  0  0  0  0
  7  8  1  0  0  0  0
  8  9  1  0  0  0  0
  9 10  1  0  0  0  0
 10  6  1  0  0  0  0
 11 12  1  0  0  0  0
 12 13  1  1  0  0  0
  3 13  1  6  0  0  0
 11 14  1  0  0  0  0
 14 15  1  0  0  0  0
 15 16  1  0  0  0  0
 16 17  1  0  0  0  0
 17 12  1  0  0  0  0
 10 18  2  0  0  0  0
  4 19  1  1  0  0  0
 19 20  2  0  0  0  0
 14 21  1  1  0  0  0
 21 22  1  0  0  0  0
 16 23  1  1  0  0  0
 15 24  1  6  0  0  0
 17 25  1  6  0  0  0
  5 26  1  6  0  0  0
 25 27  1  0  0  0  0
 27 28  1  0  0  0  0
 27 29  2  0  0  0  0
 23 30  1  0  0  0  0
 30 31  2  0  0  0  0
 30 32  1  0  0  0  0
 24 33  1  0  0  0  0
 33 34  1  0  0  0  0
 33 35  2  0  0  0  0
 34 36  2  0  0  0  0
 36 37  1  0  0  0  0
 37 38  2  0  0  0  0
 38 39  1  0  0  0  0
 39 40  2  0  0  0  0
 40 34  1  0  0  0  0
 36 41  1  0  0  0  0
 37 42  1  0  0  0  0
 43 42  1  1  0  0  0
 43 44  1  0  0  0  0
 44 45  1  0  0  0  0
 45 46  1  0  0  0  0
 46 47  1  0  0  0  0
 47 48  1  0  0  0  0
 48 43  1  0  0  0  0
 45 49  1  1  0  0  0
 47 50  1  1  0  0  0
 48 51  1  6  0  0  0
 46 52  1  6  0  0  0
 49 53  1  0  0  0  0
 54 53  1  1  0  0  0
 54 55  1  0  0  0  0
 55 56  1  0  0  0  0
 56 57  1  0  0  0  0
 57 58  1  0  0  0  0
 58 59  1  0  0  0  0
 59 54  1  0  0  0  0
 56 60  1  1  0  0  0
 58 61  1  1  0  0  0
 57 62  1  6  0  0  0
 60 63  1  0  0  0  0
 59 64  1  6  0  0  0
M  END
>  <cdx:fragmentId>
5

$$$$
