98441.cdx
  Mrv1902 05222410182D          

 15 16  0  0  0  0            999 V2000
    8.9699   -8.4288    0.0000 C   0  0  0  0  0  0  0  0  0  0  0  0
    8.9699   -9.2538    0.0000 C   0  0  0  0  0  0  0  0  0  0  0  0
    9.6844   -9.6662    0.0000 C   0  0  0  0  0  0  0  0  0  0  0  0
   10.3989   -9.2538    0.0000 C   0  0  0  0  0  0  0  0  0  0  0  0
   10.3989   -8.4288    0.0000 C   0  0  0  0  0  0  0  0  0  0  0  0
    9.6844   -8.0162    0.0000 C   0  0  0  0  0  0  0  0  0  0  0  0
    8.2555   -8.0162    0.0000 N   0  0  0  0  0  0  0  0  0  0  0  0
    7.5410   -8.4288    0.0000 C   0  0  0  0  0  0  0  0  0  0  0  0
    6.8265   -8.0162    0.0000 O   0  0  0  0  0  0  0  0  0  0  0  0
    7.5410   -9.2538    0.0000 O   0  0  0  0  0  0  0  0  0  0  0  0
    6.1120   -8.4288    0.0000 C   0  0  0  0  0  0  0  0  0  0  0  0
    5.3976   -8.0162    0.0000 C   0  0  0  0  0  0  0  0  0  0  0  0
    4.9851   -7.3018    0.0000 O   0  0  0  0  0  0  0  0  0  0  0  0
    4.5726   -8.0162    0.0000 C   0  0  0  0  0  0  0  0  0  0  0  0
    3.8581   -8.4288    0.0000 C   0  0  0  0  0  0  0  0  0  0  0  0
  1  2  2  0  0  0  0
  2  3  1  0  0  0  0
  3  4  2  0  0  0  0
  4  5  1  0  0  0  0
  5  6  2  0  0  0  0
  6  1  1  0  0  0  0
  1  7  1  0  0  0  0
  7  8  1  0  0  0  0
  8  9  1  0  0  0  0
  8 10  2  0  0  0  0
  9 11  1  0  0  0  0
 11 12  1  0  0  0  0
 12 13  1  0  0  0  0
 13 14  1  0  0  0  0
 14 12  1  0  0  0  0
 14 15  1  0  0  0  0
M  END
>  <cdx:fragmentId>
5

$$$$
