98445.cdx
  Mrv1902 05222410202D          

 67 72  0  0  0  0            999 V2000
   13.6568  -11.3146    0.0000 C   0  0  0  0  0  0  0  0  0  0  0  0
   14.3692  -12.5532    0.0000 O   0  0  0  0  0  0  0  0  0  0  0  0
   14.3706  -11.7282    0.0000 C   0  0  0  0  0  0  0  0  0  0  0  0
   15.0857  -11.3169    0.0000 O   0  0  0  0  0  0  0  0  0  0  0  0
   17.2284  -11.7329    0.0000 C   0  0  0  0  0  0  0  0  0  0  0  0
   15.7995  -11.7306    0.0000 O   0  0  0  0  0  0  0  0  0  0  0  0
   16.5146  -11.3192    0.0000 C   0  0  0  0  0  0  0  0  0  0  0  0
   16.5160  -10.4942    0.0000 O   0  0  0  0  0  0  0  0  0  0  0  0
   12.2332   -8.0123    0.0000 C   0  0  0  0  0  0  0  0  0  0  0  0
   12.9496   -6.7759    0.0000 O   0  0  0  0  0  0  0  0  0  0  0  0
   12.9483   -7.6009    0.0000 C   0  0  0  0  0  0  0  0  0  0  0  0
   13.6621   -8.0146    0.0000 O   0  0  0  0  0  0  0  0  0  0  0  0
   13.6608   -8.8396    0.0000 C   0  0  0  0  0  0  0  0  0  0  0  0
   15.8035   -9.2556    0.0000 C   0  0  1  0  0  0  0  0  0  0  0  0
   15.8022  -10.0806    0.0000 C   0  0  1  0  0  0  0  0  0  0  0  0
   15.0870  -10.4919    0.0000 C   0  0  2  0  0  0  0  0  0  0  0  0
   14.3732  -10.0782    0.0000 C   0  0  1  0  0  0  0  0  0  0  0  0
   14.3746   -9.2533    0.0000 C   0  0  2  0  0  0  0  0  0  0  0  0
   15.0897   -8.8419    0.0000 O   0  0  0  0  0  0  0  0  0  0  0  0
   11.5167   -9.2486    0.0000 O   0  0  0  0  0  0  0  0  0  0  0  0
   10.0837  -11.7213    0.0000 O   0  0  0  0  0  0  0  0  0  0  0  0
    8.6535  -12.5440    0.0000 O   0  0  0  0  0  0  0  0  0  0  0  0
    7.2259  -11.7167    0.0000 O   0  0  0  0  0  0  0  0  0  0  0  0
    6.5134  -10.4780    0.0000 O   0  0  0  0  0  0  0  0  0  0  0  0
    7.2285  -10.0667    0.0000 C   0  0  0  0  0  0  0  0  0  0  0  0
    7.9423  -10.4803    0.0000 C   0  0  2  0  0  0  0  0  0  0  0  0
    7.9410  -11.3053    0.0000 C   0  0  2  0  0  0  0  0  0  0  0  0
    8.6548  -11.7190    0.0000 C   0  0  1  0  0  0  0  0  0  0  0  0
    9.3699  -11.3077    0.0000 C   0  0  2  0  0  0  0  0  0  0  0  0
    9.3713  -10.4827    0.0000 C   0  0  1  0  0  0  0  0  0  0  0  0
    8.6575  -10.0690    0.0000 O   0  0  0  0  0  0  0  0  0  0  0  0
   10.0864  -10.0713    0.0000 O   0  0  0  0  0  0  0  0  0  0  0  0
   13.6581  -10.4896    0.0000 O   0  0  0  0  0  0  0  0  0  0  0  0
   12.9456   -9.2509    0.0000 O   0  0  0  0  0  0  0  0  0  0  0  0
   12.2278  -11.3123    0.0000 C   0  0  0  0  0  0  0  0  0  0  0  0
   11.5127  -11.7236    0.0000 C   0  0  0  0  0  0  0  0  0  0  0  0
   10.7989  -11.3100    0.0000 C   0  0  0  0  0  0  0  0  0  0  0  0
   10.8002  -10.4850    0.0000 C   0  0  0  0  0  0  0  0  0  0  0  0
   11.5154  -10.0736    0.0000 C   0  0  0  0  0  0  0  0  0  0  0  0
   12.2292  -10.4873    0.0000 C   0  0  0  0  0  0  0  0  0  0  0  0
   12.9443  -10.0759    0.0000 C   0  0  0  0  0  0  0  0  0  0  0  0
   16.5187   -8.8442    0.0000 O   0  0  0  0  0  0  0  0  0  0  0  0
   15.8075   -6.7806    0.0000 C   0  0  0  0  0  0  0  0  0  0  0  0
   16.5227   -6.3692    0.0000 C   0  0  0  0  0  0  0  0  0  0  0  0
   17.2365   -6.7829    0.0000 C   0  0  2  0  0  0  0  0  0  0  0  0
   17.2351   -7.6079    0.0000 C   0  0  2  0  0  0  0  0  0  0  0  0
   16.5200   -8.0192    0.0000 C   0  0  1  0  0  0  0  0  0  0  0  0
   15.8062   -7.6056    0.0000 O   0  0  0  0  0  0  0  0  0  0  0  0
   16.5240   -5.5442    0.0000 C   0  0  0  0  0  0  0  0  0  0  0  0
   17.9516   -6.3715    0.0000 C   0  0  0  0  0  0  0  0  0  0  0  0
   17.9529   -5.5465    0.0000 C   0  0  0  0  0  0  0  0  0  0  0  0
   17.2391   -5.1329    0.0000 O   0  0  0  0  0  0  0  0  0  0  0  0
   15.8102   -5.1306    0.0000 O   0  0  0  0  0  0  0  0  0  0  0  0
   17.9489   -8.0215    0.0000 C   0  0  0  0  0  0  0  0  0  0  0  0
   17.9476   -8.8465    0.0000 C   0  0  0  0  0  0  0  0  0  0  0  0
   17.9503   -7.1965    0.0000 H   0  0  0  0  0  0  0  0  0  0  0  0
    6.8385  -12.4451    0.0000 C   0  0  2  0  0  0  0  0  0  0  0  0
    6.0141  -12.4758    0.0000 O   0  0  0  0  0  0  0  0  0  0  0  0
    5.6279  -13.2048    0.0000 C   0  0  1  0  0  0  0  0  0  0  0  0
    6.0661  -13.9031    0.0000 C   0  0  2  0  0  0  0  0  0  0  0  0
    6.8900  -13.8734    0.0000 C   0  0  1  0  0  0  0  0  0  0  0  0
    7.2762  -13.1444    0.0000 C   0  0  1  0  0  0  0  0  0  0  0  0
    4.8034  -13.2350    0.0000 C   0  0  0  0  0  0  0  0  0  0  0  0
    7.3281  -14.5725    0.0000 O   0  0  0  0  0  0  0  0  0  0  0  0
    5.6799  -14.6321    0.0000 O   0  0  0  0  0  0  0  0  0  0  0  0
    4.4173  -13.9641    0.0000 O   0  0  0  0  0  0  0  0  0  0  0  0
    8.1006  -13.1147    0.0000 O   0  0  0  0  0  0  0  0  0  0  0  0
 16 15  1  0  0  0  0
 17 16  1  0  0  0  0
 18 17  1  0  0  0  0
 19 18  1  0  0  0  0
 39 20  1  0  0  0  0
 38 32  1  0  0  0  0
 30 32  1  1  0  0  0
 29 21  1  6  0  0  0
 28 22  1  1  0  0  0
 27 23  1  6  0  0  0
 26 25  1  1  0  0  0
 25 24  1  0  0  0  0
 31 26  1  0  0  0  0
 27 26  1  0  0  0  0
 28 27  1  0  0  0  0
 29 28  1  0  0  0  0
 30 29  1  0  0  0  0
 31 30  1  0  0  0  0
 41 33  1  0  0  0  0
 41 34  2  0  0  0  0
 40 35  2  0  0  0  0
 36 35  1  0  0  0  0
 37 36  2  0  0  0  0
 38 37  1  0  0  0  0
 39 38  2  0  0  0  0
 40 39  1  0  0  0  0
 41 40  1  0  0  0  0
 43 44  2  0  0  0  0
 44 45  1  0  0  0  0
 45 46  1  0  0  0  0
 46 47  1  0  0  0  0
 47 48  1  0  0  0  0
 43 48  1  0  0  0  0
 50 51  1  0  0  0  0
 51 52  1  0  0  0  0
 49 52  1  0  0  0  0
 49 44  1  0  0  0  0
 50 45  1  0  0  0  0
 49 53  2  0  0  0  0
 54 55  2  0  0  0  0
 46 54  1  1  0  0  0
 47 42  1  6  0  0  0
 45 56  1  6  0  0  0
 17 33  1  6  0  0  0
 16  4  1  1  0  0  0
  4  3  1  0  0  0  0
  3  1  1  0  0  0  0
  3  2  2  0  0  0  0
 15  8  1  6  0  0  0
  8  7  1  0  0  0  0
  7  5  1  0  0  0  0
  7  6  2  0  0  0  0
 18 13  1  1  0  0  0
 13 12  1  0  0  0  0
 12 11  1  0  0  0  0
 11  9  1  0  0  0  0
 11 10  2  0  0  0  0
 14 42  1  1  0  0  0
 19 14  1  0  0  0  0
 15 14  1  0  0  0  0
 57 23  1  1  0  0  0
 57 58  1  0  0  0  0
 58 59  1  0  0  0  0
 59 60  1  0  0  0  0
 60 61  1  0  0  0  0
 61 62  1  0  0  0  0
 62 57  1  0  0  0  0
 59 63  1  1  0  0  0
 61 64  1  1  0  0  0
 60 65  1  6  0  0  0
 63 66  1  0  0  0  0
 62 67  1  6  0  0  0
M  END
>  <cdx:fragmentId>
262051

$$$$
