98459.cdx
  Mrv1902 05222410282D          

 89 98  0  0  0  0            999 V2000
   12.9506   -5.9251    0.0000 C   0  0  0  0  0  0  0  0  0  0  0  0
   12.9506   -6.7501    0.0000 C   0  0  0  0  0  0  0  0  0  0  0  0
   13.6650   -7.1626    0.0000 C   0  0  0  0  0  0  0  0  0  0  0  0
   14.3795   -6.7501    0.0000 C   0  0  0  0  0  0  0  0  0  0  0  0
   14.3795   -5.9251    0.0000 C   0  0  0  0  0  0  0  0  0  0  0  0
   13.6650   -5.5126    0.0000 C   0  0  0  0  0  0  0  0  0  0  0  0
   15.0940   -7.1626    0.0000 C   0  0  0  0  0  0  0  0  0  0  0  0
   15.8084   -6.7501    0.0000 C   0  0  0  0  0  0  0  0  0  0  0  0
   15.8084   -5.9251    0.0000 C   0  0  0  0  0  0  0  0  0  0  0  0
   15.0940   -5.5126    0.0000 O   0  0  0  0  0  0  0  0  0  0  0  0
   17.2374   -5.9251    0.0000 C   0  0  0  0  0  0  0  0  0  0  0  0
   16.5229   -5.5126    0.0000 C   0  0  0  0  0  0  0  0  0  0  0  0
   17.9519   -5.5126    0.0000 C   0  0  0  0  0  0  0  0  0  0  0  0
   17.9519   -4.6876    0.0000 C   0  0  0  0  0  0  0  0  0  0  0  0
   17.2374   -4.2751    0.0000 C   0  0  0  0  0  0  0  0  0  0  0  0
   16.5229   -4.6876    0.0000 C   0  0  0  0  0  0  0  0  0  0  0  0
   13.6650   -7.9876    0.0000 O   0  0  0  0  0  0  0  0  0  0  0  0
   15.0940   -7.9876    0.0000 O   0  0  0  0  0  0  0  0  0  0  0  0
   12.2361   -5.5126    0.0000 O   0  0  0  0  0  0  0  0  0  0  0  0
   11.5216   -5.9251    0.0000 C   0  0  0  0  0  0  0  0  0  0  0  0
   12.2361   -7.1626    0.0000 C   0  0  2  0  0  0  0  0  0  0  0  0
   18.6663   -4.2751    0.0000 O   0  0  0  0  0  0  0  0  0  0  0  0
   11.5216   -6.7501    0.0000 O   0  0  0  0  0  0  0  0  0  0  0  0
   10.8071   -7.1626    0.0000 C   0  0  1  0  0  0  0  0  0  0  0  0
   10.8071   -7.9876    0.0000 C   0  0  2  0  0  0  0  0  0  0  0  0
   11.5216   -8.4001    0.0000 C   0  0  1  0  0  0  0  0  0  0  0  0
   12.2361   -7.9876    0.0000 C   0  0  1  0  0  0  0  0  0  0  0  0
   10.0927   -6.7501    0.0000 C   0  0  0  0  0  0  0  0  0  0  0  0
   11.5216   -9.2251    0.0000 O   0  0  0  0  0  0  0  0  0  0  0  0
   12.9506   -8.4001    0.0000 O   0  0  0  0  0  0  0  0  0  0  0  0
   10.0927   -8.4001    0.0000 O   0  0  0  0  0  0  0  0  0  0  0  0
    9.3782   -7.1626    0.0000 O   0  0  0  0  0  0  0  0  0  0  0  0
   12.9506   -9.2251    0.0000 C   0  0  2  0  0  0  0  0  0  0  0  0
   12.2361   -9.6376    0.0000 O   0  0  0  0  0  0  0  0  0  0  0  0
   12.2361  -10.4626    0.0000 C   0  0  1  0  0  0  0  0  0  0  0  0
   12.9506  -10.8751    0.0000 C   0  0  2  0  0  0  0  0  0  0  0  0
   13.6650  -10.4626    0.0000 C   0  0  1  0  0  0  0  0  0  0  0  0
   13.6650   -9.6376    0.0000 C   0  0  1  0  0  0  0  0  0  0  0  0
   14.3795  -10.8751    0.0000 O   0  0  0  0  0  0  0  0  0  0  0  0
   14.3795   -9.2251    0.0000 O   0  0  0  0  0  0  0  0  0  0  0  0
   12.9506  -11.7001    0.0000 O   0  0  0  0  0  0  0  0  0  0  0  0
   12.2361   -6.3376    0.0000 H   0  0  0  0  0  0  0  0  0  0  0  0
    8.6637   -6.7501    0.0000 C   0  0  0  0  0  0  0  0  0  0  0  0
    7.9493   -7.1626    0.0000 C   0  0  0  0  0  0  0  0  0  0  0  0
    8.6637   -5.9251    0.0000 O   0  0  0  0  0  0  0  0  0  0  0  0
    7.2348   -6.7501    0.0000 C   0  0  0  0  0  0  0  0  0  0  0  0
    7.1485   -5.9297    0.0000 C   0  0  0  0  0  0  0  0  0  0  0  0
    6.3416   -5.7581    0.0000 C   0  0  0  0  0  0  0  0  0  0  0  0
    5.9291   -6.4726    0.0000 N   0  0  0  0  0  0  0  0  0  0  0  0
    6.4811   -7.0857    0.0000 C   0  0  0  0  0  0  0  0  0  0  0  0
    6.3096   -7.8927    0.0000 O   0  0  0  0  0  0  0  0  0  0  0  0
    7.7006   -5.3166    0.0000 C   0  0  0  0  0  0  0  0  0  0  0  0
    7.4456   -4.5320    0.0000 C   0  0  0  0  0  0  0  0  0  0  0  0
    6.6387   -4.3604    0.0000 C   0  0  0  0  0  0  0  0  0  0  0  0
    6.0866   -4.9735    0.0000 C   0  0  0  0  0  0  0  0  0  0  0  0
    5.1086   -6.5588    0.0000 C   0  0  2  0  0  0  0  0  0  0  0  0
    4.6237   -5.8914    0.0000 O   0  0  0  0  0  0  0  0  0  0  0  0
    3.8032   -5.9776    0.0000 C   0  0  1  0  0  0  0  0  0  0  0  0
    3.4676   -6.7313    0.0000 C   0  0  2  0  0  0  0  0  0  0  0  0
    3.9526   -7.3988    0.0000 C   0  0  1  0  0  0  0  0  0  0  0  0
    4.7730   -7.3125    0.0000 C   0  0  1  0  0  0  0  0  0  0  0  0
    3.3183   -5.3102    0.0000 C   0  0  0  0  0  0  0  0  0  0  0  0
    3.6170   -8.1524    0.0000 O   0  0  0  0  0  0  0  0  0  0  0  0
    5.2580   -7.9800    0.0000 O   0  0  0  0  0  0  0  0  0  0  0  0
    2.6472   -6.8176    0.0000 O   0  0  0  0  0  0  0  0  0  0  0  0
    2.4978   -5.3964    0.0000 O   0  0  0  0  0  0  0  0  0  0  0  0
    5.5211   -5.8444    0.0000 H   0  0  0  0  0  0  0  0  0  0  0  0
   10.0927  -13.3501    0.0000 C   0  0  0  0  0  0  0  0  0  0  0  0
   10.0927  -14.1751    0.0000 C   0  0  0  0  0  0  0  0  0  0  0  0
   10.8071  -14.5876    0.0000 C   0  0  0  0  0  0  0  0  0  0  0  0
   11.5216  -14.1751    0.0000 C   0  0  0  0  0  0  0  0  0  0  0  0
   11.5216  -13.3501    0.0000 C   0  0  0  0  0  0  0  0  0  0  0  0
   10.0927  -11.7001    0.0000 O   0  0  0  0  0  0  0  0  0  0  0  0
   10.8071  -12.9376    0.0000 C   0  0  0  0  0  0  0  0  0  0  0  0
   10.8071  -12.1126    0.0000 C   0  0  0  0  0  0  0  0  0  0  0  0
   11.5216  -11.7001    0.0000 O   0  0  0  0  0  0  0  0  0  0  0  0
   11.5216  -10.8751    0.0000 C   0  0  0  0  0  0  0  0  0  0  0  0
   10.8071  -15.4126    0.0000 O   0  0  0  0  0  0  0  0  0  0  0  0
   10.0927  -15.8251    0.0000 C   0  0  2  0  0  0  0  0  0  0  0  0
    9.3782  -15.4126    0.0000 O   0  0  0  0  0  0  0  0  0  0  0  0
    8.6637  -15.8251    0.0000 C   0  0  1  0  0  0  0  0  0  0  0  0
    8.6637  -16.6501    0.0000 C   0  0  2  0  0  0  0  0  0  0  0  0
    9.3782  -17.0626    0.0000 C   0  0  1  0  0  0  0  0  0  0  0  0
   10.0927  -16.6501    0.0000 C   0  0  1  0  0  0  0  0  0  0  0  0
    7.9493  -15.4126    0.0000 C   0  0  0  0  0  0  0  0  0  0  0  0
    9.3782  -17.8876    0.0000 O   0  0  0  0  0  0  0  0  0  0  0  0
    7.2348  -15.8251    0.0000 O   0  0  0  0  0  0  0  0  0  0  0  0
   10.8071  -17.0626    0.0000 O   0  0  0  0  0  0  0  0  0  0  0  0
    7.9493  -17.0626    0.0000 O   0  0  0  0  0  0  0  0  0  0  0  0
  1  2  2  0  0  0  0
  2  3  1  0  0  0  0
  3  4  2  0  0  0  0
  4  5  1  0  0  0  0
  5  6  2  0  0  0  0
  6  1  1  0  0  0  0
  4  7  1  0  0  0  0
  7  8  1  0  0  0  0
  8  9  2  0  0  0  0
  9 10  1  0  0  0  0
 10  5  1  0  0  0  0
 11 12  2  0  0  0  0
 12  9  1  0  0  0  0
 11 13  1  0  0  0  0
 13 14  2  0  0  0  0
 14 15  1  0  0  0  0
 15 16  2  0  0  0  0
 16 12  1  0  0  0  0
  3 17  1  0  0  0  0
 18  7  2  0  0  0  0
  1 19  1  0  0  0  0
 19 20  1  0  0  0  0
 21  2  1  0  0  0  0
 14 22  1  0  0  0  0
 21 23  1  0  0  0  0
 23 24  1  0  0  0  0
 24 25  1  0  0  0  0
 25 26  1  0  0  0  0
 26 27  1  0  0  0  0
 27 21  1  0  0  0  0
 24 28  1  1  0  0  0
 26 29  1  1  0  0  0
 27 30  1  6  0  0  0
 25 31  1  6  0  0  0
 28 32  1  0  0  0  0
 33 30  1  1  0  0  0
 33 34  1  0  0  0  0
 34 35  1  0  0  0  0
 35 36  1  0  0  0  0
 36 37  1  0  0  0  0
 37 38  1  0  0  0  0
 38 33  1  0  0  0  0
 37 39  1  1  0  0  0
 35 77  1  1  0  0  0
 38 40  1  6  0  0  0
 36 41  1  6  0  0  0
 68 74  1  0  0  0  0
 21 42  1  6  0  0  0
 32 43  1  0  0  0  0
 43 44  1  0  0  0  0
 43 45  2  0  0  0  0
 44 46  1  0  0  0  0
 46 47  1  0  0  0  0
 47 48  2  0  0  0  0
 48 49  1  0  0  0  0
 49 50  1  0  0  0  0
 50 46  1  0  0  0  0
 50 51  2  0  0  0  0
 47 52  1  0  0  0  0
 52 53  2  0  0  0  0
 53 54  1  0  0  0  0
 54 55  2  0  0  0  0
 55 48  1  0  0  0  0
 49 56  1  0  0  0  0
 56 57  1  0  0  0  0
 57 58  1  0  0  0  0
 58 59  1  0  0  0  0
 59 60  1  0  0  0  0
 60 61  1  0  0  0  0
 61 56  1  0  0  0  0
 58 62  1  1  0  0  0
 60 63  1  1  0  0  0
 61 64  1  6  0  0  0
 59 65  1  6  0  0  0
 62 66  1  0  0  0  0
 56 67  1  6  0  0  0
 69 68  2  0  0  0  0
 70 69  1  0  0  0  0
 71 70  2  0  0  0  0
 72 71  1  0  0  0  0
 74 72  2  0  0  0  0
 75 73  2  0  0  0  0
 75 74  1  0  0  0  0
 76 75  1  0  0  0  0
 77 76  1  0  0  0  0
 70 78  1  0  0  0  0
 79 78  1  1  0  0  0
 79 80  1  0  0  0  0
 80 81  1  0  0  0  0
 81 82  1  0  0  0  0
 82 83  1  0  0  0  0
 83 84  1  0  0  0  0
 84 79  1  0  0  0  0
 81 85  1  1  0  0  0
 83 86  1  1  0  0  0
 85 87  1  0  0  0  0
 84 88  1  6  0  0  0
 82 89  1  6  0  0  0
M  END
>  <cdx:fragmentId>
5

$$$$
