98457.cdx
  Mrv1902 05222410182D          

 70 77  0  0  0  0            999 V2000
   11.1203   -7.7272    0.0000 C   0  0  0  0  0  0  0  0  0  0  0  0
   11.1178   -8.5522    0.0000 C   0  0  0  0  0  0  0  0  0  0  0  0
   10.4021   -8.9624    0.0000 C   0  0  0  0  0  0  0  0  0  0  0  0
    9.6889   -8.5477    0.0000 C   0  0  0  0  0  0  0  0  0  0  0  0
    8.9731   -8.9580    0.0000 C   0  0  0  0  0  0  0  0  0  0  0  0
    8.2599   -8.5433    0.0000 C   0  0  0  0  0  0  0  0  0  0  0  0
    8.2625   -7.7183    0.0000 C   0  0  0  0  0  0  0  0  0  0  0  0
    8.9782   -7.3080    0.0000 C   0  0  0  0  0  0  0  0  0  0  0  0
    9.6914   -7.7227    0.0000 C   0  0  0  0  0  0  0  0  0  0  0  0
   10.4072   -7.3125    0.0000 O   0  0  0  0  0  0  0  0  0  0  0  0
   10.3995   -9.7874    0.0000 O   0  0  0  0  0  0  0  0  0  0  0  0
    7.5493   -7.3036    0.0000 O   0  0  0  0  0  0  0  0  0  0  0  0
    6.8348   -7.7161    0.0000 C   0  0  0  0  0  0  0  0  0  0  0  0
   11.8361   -7.3169    0.0000 C   0  0  0  0  0  0  0  0  0  0  0  0
   11.8386   -6.4919    0.0000 C   0  0  0  0  0  0  0  0  0  0  0  0
   12.5544   -6.0816    0.0000 C   0  0  0  0  0  0  0  0  0  0  0  0
   13.2676   -6.4963    0.0000 C   0  0  0  0  0  0  0  0  0  0  0  0
   13.2650   -7.3213    0.0000 C   0  0  0  0  0  0  0  0  0  0  0  0
   12.5493   -7.7316    0.0000 C   0  0  0  0  0  0  0  0  0  0  0  0
   13.9833   -6.0860    0.0000 O   0  0  0  0  0  0  0  0  0  0  0  0
    8.9706   -9.7830    0.0000 O   0  0  0  0  0  0  0  0  0  0  0  0
    7.5273  -11.4286    0.0000 O   0  0  0  0  0  0  0  0  0  0  0  0
    7.5216  -12.2535    0.0000 C   0  0  1  0  0  0  0  0  0  0  0  0
    8.2333  -12.6709    0.0000 C   0  0  2  0  0  0  0  0  0  0  0  0
    8.9506  -12.2633    0.0000 C   0  0  1  0  0  0  0  0  0  0  0  0
    8.9562  -11.4383    0.0000 C   0  0  2  0  0  0  0  0  0  0  0  0
    8.2446  -11.0210    0.0000 C   0  0  2  0  0  0  0  0  0  0  0  0
    9.6735  -11.0307    0.0000 O   0  0  0  0  0  0  0  0  0  0  0  0
    9.6622  -12.6807    0.0000 O   0  0  0  0  0  0  0  0  0  0  0  0
    8.2276  -13.4959    0.0000 O   0  0  0  0  0  0  0  0  0  0  0  0
    8.2502  -10.1960    0.0000 O   0  0  0  0  0  0  0  0  0  0  0  0
    6.8325   -8.5362    0.0000 O   0  0  0  0  0  0  0  0  0  0  0  0
    7.5442   -8.9536    0.0000 C   0  0  2  0  0  0  0  0  0  0  0  0
    7.5385   -9.7786    0.0000 C   0  0  1  0  0  0  0  0  0  0  0  0
    6.8213  -10.1862    0.0000 C   0  0  2  0  0  0  0  0  0  0  0  0
    6.1096   -9.7688    0.0000 C   0  0  1  0  0  0  0  0  0  0  0  0
    6.1153   -8.9439    0.0000 C   0  0  1  0  0  0  0  0  0  0  0  0
    5.4036   -8.5265    0.0000 C   0  0  0  0  0  0  0  0  0  0  0  0
    4.6864   -8.9341    0.0000 O   0  0  0  0  0  0  0  0  0  0  0  0
    5.3924  -10.1764    0.0000 O   0  0  0  0  0  0  0  0  0  0  0  0
    6.8156  -11.0112    0.0000 O   0  0  0  0  0  0  0  0  0  0  0  0
    7.5442   -8.1286    0.0000 H   0  0  0  0  0  0  0  0  0  0  0  0
    6.8044  -12.6612    0.0000 C   0  0  0  0  0  0  0  0  0  0  0  0
    6.0927  -12.2438    0.0000 O   0  0  0  0  0  0  0  0  0  0  0  0
    5.3755  -12.6514    0.0000 C   0  0  0  0  0  0  0  0  0  0  0  0
    4.6638  -12.2340    0.0000 C   0  0  0  0  0  0  0  0  0  0  0  0
    5.3698  -13.4764    0.0000 O   0  0  0  0  0  0  0  0  0  0  0  0
    3.9466  -12.6416    0.0000 C   0  0  2  0  0  0  0  0  0  0  0  0
    3.1952  -12.3009    0.0000 C   0  0  0  0  0  0  0  0  0  0  0  0
    2.6390  -12.9102    0.0000 C   0  0  0  0  0  0  0  0  0  0  0  0
    3.0466  -13.6275    0.0000 N   0  0  0  0  0  0  0  0  0  0  0  0
    3.8547  -13.4615    0.0000 C   0  0  0  0  0  0  0  0  0  0  0  0
    4.4640  -14.0177    0.0000 O   0  0  0  0  0  0  0  0  0  0  0  0
    4.0384  -11.8218    0.0000 O   0  0  0  0  0  0  0  0  0  0  0  0
    2.9456  -11.5146    0.0000 C   0  0  0  0  0  0  0  0  0  0  0  0
    2.1398  -11.3375    0.0000 C   0  0  0  0  0  0  0  0  0  0  0  0
    1.5836  -11.9469    0.0000 C   0  0  0  0  0  0  0  0  0  0  0  0
    1.8332  -12.7332    0.0000 C   0  0  0  0  0  0  0  0  0  0  0  0
    2.7059  -14.3789    0.0000 C   0  0  2  0  0  0  0  0  0  0  0  0
    1.8848  -14.4595    0.0000 O   0  0  0  0  0  0  0  0  0  0  0  0
    1.5441  -15.2109    0.0000 C   0  0  1  0  0  0  0  0  0  0  0  0
    2.0245  -15.8816    0.0000 C   0  0  2  0  0  0  0  0  0  0  0  0
    2.8455  -15.8010    0.0000 C   0  0  1  0  0  0  0  0  0  0  0  0
    3.1862  -15.0496    0.0000 C   0  0  1  0  0  0  0  0  0  0  0  0
    0.7231  -15.2915    0.0000 C   0  0  0  0  0  0  0  0  0  0  0  0
    3.3259  -16.4717    0.0000 O   0  0  0  0  0  0  0  0  0  0  0  0
    4.0073  -14.9690    0.0000 O   0  0  0  0  0  0  0  0  0  0  0  0
    1.6838  -16.6330    0.0000 O   0  0  0  0  0  0  0  0  0  0  0  0
    0.3824  -16.0429    0.0000 O   0  0  0  0  0  0  0  0  0  0  0  0
    2.2934  -13.6644    0.0000 H   0  0  0  0  0  0  0  0  0  0  0  0
 33  6  1  0  0  0  0
  1  2  2  0  0  0  0
  2  3  1  0  0  0  0
  3  4  1  0  0  0  0
  4  5  1  0  0  0  0
  5  6  2  0  0  0  0
  6  7  1  0  0  0  0
  7  8  2  0  0  0  0
  8  9  1  0  0  0  0
  4  9  2  0  0  0  0
  9 10  1  0  0  0  0
  1 10  1  0  0  0  0
  3 11  2  0  0  0  0
 12 13  1  0  0  0  0
  7 12  1  0  0  0  0
 14 15  1  0  0  0  0
 15 16  2  0  0  0  0
 16 17  1  0  0  0  0
 17 18  2  0  0  0  0
 18 19  1  0  0  0  0
 14 19  2  0  0  0  0
 17 20  1  0  0  0  0
  1 14  1  0  0  0  0
  5 21  1  0  0  0  0
 22 23  1  0  0  0  0
 23 24  1  0  0  0  0
 24 25  1  0  0  0  0
 25 26  1  0  0  0  0
 26 27  1  0  0  0  0
 22 27  1  0  0  0  0
 26 28  1  6  0  0  0
 25 29  1  1  0  0  0
 24 30  1  6  0  0  0
 32 33  1  0  0  0  0
 33 34  1  0  0  0  0
 34 35  1  0  0  0  0
 35 36  1  0  0  0  0
 36 37  1  0  0  0  0
 32 37  1  0  0  0  0
 38 39  1  0  0  0  0
 37 38  1  1  0  0  0
 36 40  1  6  0  0  0
 35 41  1  1  0  0  0
 34 31  1  6  0  0  0
 27 31  1  1  0  0  0
 23 43  1  1  0  0  0
 33 42  1  6  0  0  0
 43 44  1  0  0  0  0
 44 45  1  0  0  0  0
 45 46  1  0  0  0  0
 45 47  2  0  0  0  0
 46 48  1  0  0  0  0
 48 49  1  0  0  0  0
 49 50  2  0  0  0  0
 50 51  1  0  0  0  0
 51 52  1  0  0  0  0
 52 48  1  0  0  0  0
 52 53  2  0  0  0  0
 48 54  1  6  0  0  0
 49 55  1  0  0  0  0
 55 56  2  0  0  0  0
 56 57  1  0  0  0  0
 57 58  2  0  0  0  0
 58 50  1  0  0  0  0
 51 59  1  0  0  0  0
 59 60  1  0  0  0  0
 60 61  1  0  0  0  0
 61 62  1  0  0  0  0
 62 63  1  0  0  0  0
 63 64  1  0  0  0  0
 64 59  1  0  0  0  0
 61 65  1  1  0  0  0
 63 66  1  1  0  0  0
 64 67  1  6  0  0  0
 62 68  1  6  0  0  0
 65 69  1  0  0  0  0
 59 70  1  6  0  0  0
M  END
>  <cdx:fragmentId>
133584

$$$$
