98455.cdx
  Mrv1902 05222410182D          

 72 78  0  0  0  0            999 V2000
    9.3265  -13.9762    0.0000 C   0  0  0  0  0  0  0  0  0  0  0  0
    9.3208  -14.8012    0.0000 C   0  0  0  0  0  0  0  0  0  0  0  0
    8.6036  -15.2088    0.0000 C   0  0  0  0  0  0  0  0  0  0  0  0
    8.6148  -13.5589    0.0000 O   0  0  0  0  0  0  0  0  0  0  0  0
   10.0437  -13.5686    0.0000 O   0  0  0  0  0  0  0  0  0  0  0  0
    8.5979  -16.0338    0.0000 C   0  0  0  0  0  0  0  0  0  0  0  0
    7.8806  -16.4414    0.0000 C   0  0  0  0  0  0  0  0  0  0  0  0
    7.8750  -17.2664    0.0000 C   0  0  0  0  0  0  0  0  0  0  0  0
   14.3653   -7.8097    0.0000 C   0  0  0  0  0  0  0  0  0  0  0  0
   14.3628   -8.6347    0.0000 C   0  0  0  0  0  0  0  0  0  0  0  0
   13.6471   -9.0449    0.0000 C   0  0  0  0  0  0  0  0  0  0  0  0
   12.9339   -8.6302    0.0000 C   0  0  0  0  0  0  0  0  0  0  0  0
   12.2181   -9.0405    0.0000 C   0  0  0  0  0  0  0  0  0  0  0  0
   11.5049   -8.6258    0.0000 C   0  0  0  0  0  0  0  0  0  0  0  0
   11.5075   -7.8008    0.0000 C   0  0  0  0  0  0  0  0  0  0  0  0
   12.2232   -7.3905    0.0000 C   0  0  0  0  0  0  0  0  0  0  0  0
   12.9364   -7.8052    0.0000 C   0  0  0  0  0  0  0  0  0  0  0  0
   13.6522   -7.3950    0.0000 O   0  0  0  0  0  0  0  0  0  0  0  0
   13.6445   -9.8699    0.0000 O   0  0  0  0  0  0  0  0  0  0  0  0
   10.7943   -7.3861    0.0000 O   0  0  0  0  0  0  0  0  0  0  0  0
   10.0798   -7.7986    0.0000 C   0  0  0  0  0  0  0  0  0  0  0  0
   15.0811   -7.3994    0.0000 C   0  0  0  0  0  0  0  0  0  0  0  0
   15.0836   -6.5744    0.0000 C   0  0  0  0  0  0  0  0  0  0  0  0
   15.7994   -6.1641    0.0000 C   0  0  0  0  0  0  0  0  0  0  0  0
   16.5126   -6.5788    0.0000 C   0  0  0  0  0  0  0  0  0  0  0  0
   16.5100   -7.4038    0.0000 C   0  0  0  0  0  0  0  0  0  0  0  0
   15.7943   -7.8141    0.0000 C   0  0  0  0  0  0  0  0  0  0  0  0
   17.2283   -6.1685    0.0000 O   0  0  0  0  0  0  0  0  0  0  0  0
   12.2156   -9.8655    0.0000 O   0  0  0  0  0  0  0  0  0  0  0  0
    8.5866  -17.6838    0.0000 C   0  0  0  0  0  0  0  0  0  0  0  0
    9.3039  -17.2762    0.0000 C   0  0  0  0  0  0  0  0  0  0  0  0
    9.3096  -16.4512    0.0000 C   0  0  0  0  0  0  0  0  0  0  0  0
    7.1577  -17.6740    0.0000 O   0  0  0  0  0  0  0  0  0  0  0  0
    7.1521  -18.4990    0.0000 C   0  0  0  0  0  0  0  0  0  0  0  0
    8.5810  -18.5088    0.0000 O   0  0  0  0  0  0  0  0  0  0  0  0
   10.0494  -12.7437    0.0000 C   0  0  0  0  0  0  0  0  0  0  0  0
   10.7723  -11.5111    0.0000 O   0  0  0  0  0  0  0  0  0  0  0  0
   10.7666  -12.3360    0.0000 C   0  0  1  0  0  0  0  0  0  0  0  0
   11.4783  -12.7534    0.0000 C   0  0  2  0  0  0  0  0  0  0  0  0
   12.1956  -12.3458    0.0000 C   0  0  1  0  0  0  0  0  0  0  0  0
   12.2012  -11.5208    0.0000 C   0  0  2  0  0  0  0  0  0  0  0  0
   11.4896  -11.1035    0.0000 C   0  0  2  0  0  0  0  0  0  0  0  0
   12.9185  -11.1132    0.0000 O   0  0  0  0  0  0  0  0  0  0  0  0
   12.9072  -12.7632    0.0000 O   0  0  0  0  0  0  0  0  0  0  0  0
   11.4726  -13.5784    0.0000 O   0  0  0  0  0  0  0  0  0  0  0  0
   11.4952  -10.2785    0.0000 O   0  0  0  0  0  0  0  0  0  0  0  0
   10.0775   -8.6187    0.0000 O   0  0  0  0  0  0  0  0  0  0  0  0
   10.7892   -9.0361    0.0000 C   0  0  2  0  0  0  0  0  0  0  0  0
   10.7835   -9.8611    0.0000 C   0  0  1  0  0  0  0  0  0  0  0  0
   10.0663  -10.2687    0.0000 C   0  0  2  0  0  0  0  0  0  0  0  0
    9.3546   -9.8513    0.0000 C   0  0  1  0  0  0  0  0  0  0  0  0
    9.3603   -9.0264    0.0000 C   0  0  1  0  0  0  0  0  0  0  0  0
    8.6486   -8.6090    0.0000 C   0  0  0  0  0  0  0  0  0  0  0  0
    7.9314   -9.0166    0.0000 O   0  0  0  0  0  0  0  0  0  0  0  0
    8.6374  -10.2589    0.0000 O   0  0  0  0  0  0  0  0  0  0  0  0
   10.0606  -11.0937    0.0000 O   0  0  0  0  0  0  0  0  0  0  0  0
   10.7892   -8.2111    0.0000 H   0  0  0  0  0  0  0  0  0  0  0  0
    7.2197   -8.5992    0.0000 C   0  0  0  0  0  0  0  0  0  0  0  0
    6.5025   -9.0068    0.0000 C   0  0  0  0  0  0  0  0  0  0  0  0
    7.2254   -7.7742    0.0000 O   0  0  0  0  0  0  0  0  0  0  0  0
    5.7908   -8.5895    0.0000 C   0  0  0  0  0  0  0  0  0  0  0  0
    5.0736   -8.9971    0.0000 C   0  0  0  0  0  0  0  0  0  0  0  0
    4.3648   -8.5748    0.0000 C   0  0  0  0  0  0  0  0  0  0  0  0
    3.6447   -8.9971    0.0000 C   0  0  0  0  0  0  0  0  0  0  0  0
    3.6447   -9.8220    0.0000 C   0  0  0  0  0  0  0  0  0  0  0  0
    4.3648  -10.2442    0.0000 C   0  0  0  0  0  0  0  0  0  0  0  0
    5.0736   -9.8220    0.0000 C   0  0  0  0  0  0  0  0  0  0  0  0
    2.9289  -10.2321    0.0000 O   0  0  0  0  0  0  0  0  0  0  0  0
    2.9289   -8.5870    0.0000 O   0  0  0  0  0  0  0  0  0  0  0  0
    2.2158   -9.0019    0.0000 C   0  0  0  0  0  0  0  0  0  0  0  0
    4.3676  -11.0692    0.0000 O   0  0  0  0  0  0  0  0  0  0  0  0
    3.6546  -11.4842    0.0000 C   0  0  0  0  0  0  0  0  0  0  0  0
 48 14  1  0  0  0  0
  9 10  2  0  0  0  0
 10 11  1  0  0  0  0
  1  2  1  0  0  0  0
  2  3  2  0  0  0  0
  1  4  2  0  0  0  0
  1  5  1  0  0  0  0
  6  7  1  0  0  0  0
  7  8  2  0  0  0  0
 11 12  1  0  0  0  0
 12 13  1  0  0  0  0
 13 14  2  0  0  0  0
 14 15  1  0  0  0  0
 15 16  2  0  0  0  0
 16 17  1  0  0  0  0
 12 17  2  0  0  0  0
 17 18  1  0  0  0  0
  9 18  1  0  0  0  0
 11 19  2  0  0  0  0
 20 21  1  0  0  0  0
 15 20  1  0  0  0  0
 22 23  1  0  0  0  0
 23 24  2  0  0  0  0
 24 25  1  0  0  0  0
 25 26  2  0  0  0  0
 26 27  1  0  0  0  0
 22 27  2  0  0  0  0
 25 28  1  0  0  0  0
  9 22  1  0  0  0  0
 13 29  1  0  0  0  0
  8 30  1  0  0  0  0
 30 31  2  0  0  0  0
 31 32  1  0  0  0  0
  6 32  2  0  0  0  0
 33 34  1  0  0  0  0
  8 33  1  0  0  0  0
 30 35  1  0  0  0  0
  3  6  1  0  0  0  0
 37 38  1  0  0  0  0
 38 39  1  0  0  0  0
 39 40  1  0  0  0  0
 40 41  1  0  0  0  0
 41 42  1  0  0  0  0
 37 42  1  0  0  0  0
 41 43  1  6  0  0  0
 40 44  1  1  0  0  0
 39 45  1  6  0  0  0
 47 48  1  0  0  0  0
 48 49  1  0  0  0  0
 49 50  1  0  0  0  0
 50 51  1  0  0  0  0
 51 52  1  0  0  0  0
 47 52  1  0  0  0  0
 53 54  1  0  0  0  0
 52 53  1  1  0  0  0
 51 55  1  6  0  0  0
 50 56  1  1  0  0  0
 49 46  1  6  0  0  0
 42 46  1  1  0  0  0
 38 36  1  1  0  0  0
  5 36  1  0  0  0  0
 48 57  1  6  0  0  0
 54 58  1  0  0  0  0
 58 59  1  0  0  0  0
 58 60  2  0  0  0  0
 59 61  2  0  0  0  0
 61 62  1  0  0  0  0
 62 63  2  0  0  0  0
 63 64  1  0  0  0  0
 64 65  2  0  0  0  0
 65 66  1  0  0  0  0
 66 67  2  0  0  0  0
 67 62  1  0  0  0  0
 65 68  1  0  0  0  0
 64 69  1  0  0  0  0
 69 70  1  0  0  0  0
 66 71  1  0  0  0  0
 71 72  1  0  0  0  0
M  END
>  <cdx:fragmentId>
133584

$$$$
