98451.cdx
  Mrv1902 05222410202D          

 38 40  0  0  0  0            999 V2000
    8.2406   -8.6487    0.0000 C   0  0  0  0  0  0  0  0  0  0  0  0
    8.9551   -9.0612    0.0000 C   0  0  0  0  0  0  0  0  0  0  0  0
    8.9551   -9.8862    0.0000 C   0  0  2  0  0  0  0  0  0  0  0  0
    8.2406  -10.2987    0.0000 C   0  0  2  0  0  0  0  0  0  0  0  0
    7.5262   -9.8862    0.0000 C   0  0  1  0  0  0  0  0  0  0  0  0
    7.5262   -9.0612    0.0000 C   0  0  0  0  0  0  0  0  0  0  0  0
    8.2406   -7.8237    0.0000 C   0  0  0  0  0  0  0  0  0  0  0  0
    7.5262   -7.4112    0.0000 O   0  0  0  0  0  0  0  0  0  0  0  0
    8.9551   -7.4112    0.0000 O   0  0  0  0  0  0  0  0  0  0  0  0
    8.2406  -11.1237    0.0000 O   0  0  0  0  0  0  0  0  0  0  0  0
    8.9551   -8.2362    0.0000 O   0  0  0  0  0  0  0  0  0  0  0  0
    6.8117  -10.2987    0.0000 O   0  0  0  0  0  0  0  0  0  0  0  0
    9.6696  -10.2987    0.0000 O   0  0  0  0  0  0  0  0  0  0  0  0
    8.9551   -6.5862    0.0000 C   0  0  0  0  0  0  0  0  0  0  0  0
    9.6676   -7.8156    0.0000 C   0  0  0  0  0  0  0  0  0  0  0  0
    9.6682   -6.9906    0.0000 C   0  0  0  0  0  0  0  0  0  0  0  0
   10.3830   -6.5787    0.0000 C   0  0  0  0  0  0  0  0  0  0  0  0
   10.3817   -8.2287    0.0000 O   0  0  0  0  0  0  0  0  0  0  0  0
   10.3837   -5.7537    0.0000 C   0  0  0  0  0  0  0  0  0  0  0  0
   11.0985   -5.3418    0.0000 C   0  0  0  0  0  0  0  0  0  0  0  0
   11.0992   -4.5168    0.0000 C   0  0  0  0  0  0  0  0  0  0  0  0
   10.3850   -4.1037    0.0000 C   0  0  0  0  0  0  0  0  0  0  0  0
    9.6702   -4.5157    0.0000 C   0  0  0  0  0  0  0  0  0  0  0  0
    9.6696   -5.3406    0.0000 C   0  0  0  0  0  0  0  0  0  0  0  0
   10.3857   -3.2787    0.0000 O   0  0  0  0  0  0  0  0  0  0  0  0
   11.8140   -4.1049    0.0000 O   0  0  0  0  0  0  0  0  0  0  0  0
    6.0852   -9.8815    0.0000 C   0  0  0  0  0  0  0  0  0  0  0  0
    5.3724  -10.2969    0.0000 C   0  0  0  0  0  0  0  0  0  0  0  0
    4.6563   -9.8872    0.0000 C   0  0  0  0  0  0  0  0  0  0  0  0
    6.0820   -9.0565    0.0000 O   0  0  0  0  0  0  0  0  0  0  0  0
    3.9435  -10.3025    0.0000 C   0  0  0  0  0  0  0  0  0  0  0  0
    3.2274   -9.8929    0.0000 C   0  0  0  0  0  0  0  0  0  0  0  0
    2.5145  -10.3082    0.0000 C   0  0  0  0  0  0  0  0  0  0  0  0
    2.5178  -11.1332    0.0000 C   0  0  0  0  0  0  0  0  0  0  0  0
    3.2339  -11.5429    0.0000 C   0  0  0  0  0  0  0  0  0  0  0  0
    3.9468  -11.1275    0.0000 C   0  0  0  0  0  0  0  0  0  0  0  0
    1.8050  -11.5485    0.0000 O   0  0  0  0  0  0  0  0  0  0  0  0
    1.7984   -9.8986    0.0000 O   0  0  0  0  0  0  0  0  0  0  0  0
  1  2  1  0  0  0  0
  2  3  1  0  0  0  0
  3  4  1  0  0  0  0
  4  5  1  0  0  0  0
  5  6  1  0  0  0  0
  1  6  1  0  0  0  0
  7  8  2  0  0  0  0
  7  9  1  0  0  0  0
  1  7  1  0  0  0  0
  4 10  1  1  0  0  0
  1 11  1  0  0  0  0
  5 12  1  6  0  0  0
  3 13  1  1  0  0  0
  9 14  1  0  0  0  0
 15 16  1  0  0  0  0
 16 17  2  0  0  0  0
 15 18  2  0  0  0  0
 19 20  1  0  0  0  0
 20 21  2  0  0  0  0
 21 22  1  0  0  0  0
 22 23  2  0  0  0  0
 23 24  1  0  0  0  0
 19 24  2  0  0  0  0
 22 25  1  0  0  0  0
 21 26  1  0  0  0  0
 17 19  1  0  0  0  0
 15 11  1  0  0  0  0
 27 28  1  0  0  0  0
 28 29  2  0  0  0  0
 27 30  2  0  0  0  0
 31 32  1  0  0  0  0
 32 33  2  0  0  0  0
 33 34  1  0  0  0  0
 34 35  2  0  0  0  0
 35 36  1  0  0  0  0
 31 36  2  0  0  0  0
 34 37  1  0  0  0  0
 33 38  1  0  0  0  0
 29 31  1  0  0  0  0
 27 12  1  0  0  0  0
M  END
>  <cdx:fragmentId>
37

$$$$
