98450.cdx
  Mrv1902 05222410202D          

 38 40  0  0  0  0            999 V2000
    6.8244   -7.9887    0.0000 C   0  0  0  0  0  0  0  0  0  0  0  0
    7.5389   -8.4012    0.0000 C   0  0  0  0  0  0  0  0  0  0  0  0
    7.5389   -9.2262    0.0000 C   0  0  2  0  0  0  0  0  0  0  0  0
    6.8244   -9.6387    0.0000 C   0  0  2  0  0  0  0  0  0  0  0  0
    6.1099   -9.2262    0.0000 C   0  0  1  0  0  0  0  0  0  0  0  0
    6.1099   -8.4012    0.0000 C   0  0  0  0  0  0  0  0  0  0  0  0
    6.8244   -7.1637    0.0000 C   0  0  0  0  0  0  0  0  0  0  0  0
    6.1099   -6.7512    0.0000 O   0  0  0  0  0  0  0  0  0  0  0  0
    7.5389   -6.7512    0.0000 O   0  0  0  0  0  0  0  0  0  0  0  0
    6.8244  -10.4637    0.0000 O   0  0  0  0  0  0  0  0  0  0  0  0
    7.5389   -7.5762    0.0000 O   0  0  0  0  0  0  0  0  0  0  0  0
    5.3955   -9.6387    0.0000 O   0  0  0  0  0  0  0  0  0  0  0  0
    8.2533   -9.6387    0.0000 O   0  0  0  0  0  0  0  0  0  0  0  0
    7.5389   -5.9262    0.0000 C   0  0  0  0  0  0  0  0  0  0  0  0
    8.2513   -7.1556    0.0000 C   0  0  0  0  0  0  0  0  0  0  0  0
    8.2520   -6.3306    0.0000 C   0  0  0  0  0  0  0  0  0  0  0  0
    8.9668   -5.9187    0.0000 C   0  0  0  0  0  0  0  0  0  0  0  0
    8.9655   -7.5687    0.0000 O   0  0  0  0  0  0  0  0  0  0  0  0
    8.9675   -5.0937    0.0000 C   0  0  0  0  0  0  0  0  0  0  0  0
    9.6823   -4.6818    0.0000 C   0  0  0  0  0  0  0  0  0  0  0  0
    9.6829   -3.8568    0.0000 C   0  0  0  0  0  0  0  0  0  0  0  0
    8.9688   -3.4437    0.0000 C   0  0  0  0  0  0  0  0  0  0  0  0
    8.2540   -3.8557    0.0000 C   0  0  0  0  0  0  0  0  0  0  0  0
    8.2533   -4.6806    0.0000 C   0  0  0  0  0  0  0  0  0  0  0  0
    8.9695   -2.6187    0.0000 O   0  0  0  0  0  0  0  0  0  0  0  0
   10.3977   -3.4449    0.0000 O   0  0  0  0  0  0  0  0  0  0  0  0
    6.1187  -10.8957    0.0000 C   0  0  0  0  0  0  0  0  0  0  0  0
    6.1214  -11.7207    0.0000 C   0  0  0  0  0  0  0  0  0  0  0  0
    5.4083  -12.1355    0.0000 C   0  0  0  0  0  0  0  0  0  0  0  0
    5.4029  -10.4855    0.0000 O   0  0  0  0  0  0  0  0  0  0  0  0
    5.4110  -12.9605    0.0000 C   0  0  0  0  0  0  0  0  0  0  0  0
    4.6979  -13.3754    0.0000 C   0  0  0  0  0  0  0  0  0  0  0  0
    4.7006  -14.2003    0.0000 C   0  0  0  0  0  0  0  0  0  0  0  0
    5.4164  -14.6105    0.0000 C   0  0  0  0  0  0  0  0  0  0  0  0
    6.1295  -14.1957    0.0000 C   0  0  0  0  0  0  0  0  0  0  0  0
    6.1268  -13.3707    0.0000 C   0  0  0  0  0  0  0  0  0  0  0  0
    5.4191  -15.4355    0.0000 O   0  0  0  0  0  0  0  0  0  0  0  0
    3.9875  -14.6152    0.0000 O   0  0  0  0  0  0  0  0  0  0  0  0
  1  2  1  0  0  0  0
  2  3  1  0  0  0  0
  3  4  1  0  0  0  0
  4  5  1  0  0  0  0
  5  6  1  0  0  0  0
  1  6  1  0  0  0  0
  7  8  2  0  0  0  0
  7  9  1  0  0  0  0
  1  7  1  0  0  0  0
  4 10  1  1  0  0  0
  1 11  1  0  0  0  0
  5 12  1  6  0  0  0
  3 13  1  1  0  0  0
  9 14  1  0  0  0  0
 15 16  1  0  0  0  0
 16 17  2  0  0  0  0
 15 18  2  0  0  0  0
 19 20  1  0  0  0  0
 20 21  2  0  0  0  0
 21 22  1  0  0  0  0
 22 23  2  0  0  0  0
 23 24  1  0  0  0  0
 19 24  2  0  0  0  0
 22 25  1  0  0  0  0
 21 26  1  0  0  0  0
 17 19  1  0  0  0  0
 15 11  1  0  0  0  0
 27 28  1  0  0  0  0
 28 29  2  0  0  0  0
 27 30  2  0  0  0  0
 31 32  1  0  0  0  0
 32 33  2  0  0  0  0
 33 34  1  0  0  0  0
 34 35  2  0  0  0  0
 35 36  1  0  0  0  0
 31 36  2  0  0  0  0
 34 37  1  0  0  0  0
 33 38  1  0  0  0  0
 29 31  1  0  0  0  0
 27 10  1  0  0  0  0
M  END
>  <cdx:fragmentId>
37

$$$$
