98452.cdx
  Mrv1902 05222410192D          

 26 27  0  0  0  0            999 V2000
    6.5356   -9.8037    0.0000 C   0  0  0  0  0  0  0  0  0  0  0  0
    7.2501  -10.2162    0.0000 C   0  0  0  0  0  0  0  0  0  0  0  0
    7.2501  -11.0412    0.0000 C   0  0  2  0  0  0  0  0  0  0  0  0
    6.5356  -11.4537    0.0000 C   0  0  2  0  0  0  0  0  0  0  0  0
    5.8212  -11.0412    0.0000 C   0  0  1  0  0  0  0  0  0  0  0  0
    5.8212  -10.2162    0.0000 C   0  0  0  0  0  0  0  0  0  0  0  0
    6.5356   -8.9787    0.0000 C   0  0  0  0  0  0  0  0  0  0  0  0
    5.8212   -8.5662    0.0000 O   0  0  0  0  0  0  0  0  0  0  0  0
    7.2501   -8.5662    0.0000 O   0  0  0  0  0  0  0  0  0  0  0  0
    6.5356  -12.2787    0.0000 O   0  0  0  0  0  0  0  0  0  0  0  0
    7.2501   -9.3912    0.0000 O   0  0  0  0  0  0  0  0  0  0  0  0
    5.1067  -11.4537    0.0000 O   0  0  0  0  0  0  0  0  0  0  0  0
    7.9646  -11.4537    0.0000 O   0  0  0  0  0  0  0  0  0  0  0  0
    7.2501   -7.7412    0.0000 C   0  0  0  0  0  0  0  0  0  0  0  0
    7.9626   -8.9706    0.0000 C   0  0  0  0  0  0  0  0  0  0  0  0
    7.9632   -8.1456    0.0000 C   0  0  0  0  0  0  0  0  0  0  0  0
    8.6780   -7.7337    0.0000 C   0  0  0  0  0  0  0  0  0  0  0  0
    8.6767   -9.3837    0.0000 O   0  0  0  0  0  0  0  0  0  0  0  0
    8.6787   -6.9087    0.0000 C   0  0  0  0  0  0  0  0  0  0  0  0
    9.3935   -6.4968    0.0000 C   0  0  0  0  0  0  0  0  0  0  0  0
    9.3942   -5.6718    0.0000 C   0  0  0  0  0  0  0  0  0  0  0  0
    8.6800   -5.2587    0.0000 C   0  0  0  0  0  0  0  0  0  0  0  0
    7.9652   -5.6707    0.0000 C   0  0  0  0  0  0  0  0  0  0  0  0
    7.9646   -6.4956    0.0000 C   0  0  0  0  0  0  0  0  0  0  0  0
    8.6807   -4.4337    0.0000 O   0  0  0  0  0  0  0  0  0  0  0  0
   10.1090   -5.2599    0.0000 O   0  0  0  0  0  0  0  0  0  0  0  0
  1  2  1  0  0  0  0
  2  3  1  0  0  0  0
  3  4  1  0  0  0  0
  4  5  1  0  0  0  0
  5  6  1  0  0  0  0
  1  6  1  0  0  0  0
  7  8  2  0  0  0  0
  7  9  1  0  0  0  0
  1  7  1  0  0  0  0
  4 10  1  1  0  0  0
  1 11  1  0  0  0  0
  5 12  1  6  0  0  0
  3 13  1  1  0  0  0
  9 14  1  0  0  0  0
 15 16  1  0  0  0  0
 16 17  2  0  0  0  0
 15 18  2  0  0  0  0
 19 20  1  0  0  0  0
 20 21  2  0  0  0  0
 21 22  1  0  0  0  0
 22 23  2  0  0  0  0
 23 24  1  0  0  0  0
 19 24  2  0  0  0  0
 22 25  1  0  0  0  0
 21 26  1  0  0  0  0
 17 19  1  0  0  0  0
 15 11  1  0  0  0  0
M  END
>  <cdx:fragmentId>
37

$$$$
