98461.cdx
  Mrv1902 05222410262D          

 82 90  0  0  0  0            999 V2000
   12.9506   -5.9251    0.0000 C   0  0  0  0  0  0  0  0  0  0  0  0
   12.9506   -6.7501    0.0000 C   0  0  0  0  0  0  0  0  0  0  0  0
   13.6650   -7.1626    0.0000 C   0  0  0  0  0  0  0  0  0  0  0  0
   14.3795   -6.7501    0.0000 C   0  0  0  0  0  0  0  0  0  0  0  0
   14.3795   -5.9251    0.0000 C   0  0  0  0  0  0  0  0  0  0  0  0
   13.6650   -5.5126    0.0000 C   0  0  0  0  0  0  0  0  0  0  0  0
   15.0940   -7.1626    0.0000 C   0  0  0  0  0  0  0  0  0  0  0  0
   15.8084   -6.7501    0.0000 C   0  0  0  0  0  0  0  0  0  0  0  0
   15.8084   -5.9251    0.0000 C   0  0  0  0  0  0  0  0  0  0  0  0
   15.0940   -5.5126    0.0000 O   0  0  0  0  0  0  0  0  0  0  0  0
   17.2374   -5.9251    0.0000 C   0  0  0  0  0  0  0  0  0  0  0  0
   16.5229   -5.5126    0.0000 C   0  0  0  0  0  0  0  0  0  0  0  0
   17.9519   -5.5126    0.0000 C   0  0  0  0  0  0  0  0  0  0  0  0
   17.9519   -4.6876    0.0000 C   0  0  0  0  0  0  0  0  0  0  0  0
   17.2374   -4.2751    0.0000 C   0  0  0  0  0  0  0  0  0  0  0  0
   16.5229   -4.6876    0.0000 C   0  0  0  0  0  0  0  0  0  0  0  0
   13.6650   -7.9876    0.0000 O   0  0  0  0  0  0  0  0  0  0  0  0
   15.0940   -7.9876    0.0000 O   0  0  0  0  0  0  0  0  0  0  0  0
   12.2361   -5.5126    0.0000 O   0  0  0  0  0  0  0  0  0  0  0  0
   11.5216   -5.9251    0.0000 C   0  0  0  0  0  0  0  0  0  0  0  0
   12.2361   -7.1626    0.0000 C   0  0  2  0  0  0  0  0  0  0  0  0
   18.6663   -4.2751    0.0000 O   0  0  0  0  0  0  0  0  0  0  0  0
   11.5216   -6.7501    0.0000 O   0  0  0  0  0  0  0  0  0  0  0  0
   10.8071   -7.1626    0.0000 C   0  0  1  0  0  0  0  0  0  0  0  0
   10.8071   -7.9876    0.0000 C   0  0  2  0  0  0  0  0  0  0  0  0
   11.5216   -8.4001    0.0000 C   0  0  1  0  0  0  0  0  0  0  0  0
   12.2361   -7.9876    0.0000 C   0  0  1  0  0  0  0  0  0  0  0  0
   10.0927   -6.7501    0.0000 C   0  0  0  0  0  0  0  0  0  0  0  0
   11.5216   -9.2251    0.0000 O   0  0  0  0  0  0  0  0  0  0  0  0
   12.9506   -8.4001    0.0000 O   0  0  0  0  0  0  0  0  0  0  0  0
   10.0927   -8.4001    0.0000 O   0  0  0  0  0  0  0  0  0  0  0  0
    9.3782   -7.1626    0.0000 O   0  0  0  0  0  0  0  0  0  0  0  0
   12.9506   -9.2251    0.0000 C   0  0  2  0  0  0  0  0  0  0  0  0
   12.2361   -9.6376    0.0000 O   0  0  0  0  0  0  0  0  0  0  0  0
   12.2361  -10.4626    0.0000 C   0  0  1  0  0  0  0  0  0  0  0  0
   12.9506  -10.8751    0.0000 C   0  0  2  0  0  0  0  0  0  0  0  0
   13.6650  -10.4626    0.0000 C   0  0  1  0  0  0  0  0  0  0  0  0
   13.6650   -9.6376    0.0000 C   0  0  1  0  0  0  0  0  0  0  0  0
   14.3795  -10.8751    0.0000 O   0  0  0  0  0  0  0  0  0  0  0  0
   14.3795   -9.2251    0.0000 O   0  0  0  0  0  0  0  0  0  0  0  0
   12.9506  -11.7001    0.0000 O   0  0  0  0  0  0  0  0  0  0  0  0
   11.5216  -10.8751    0.0000 C   0  0  0  0  0  0  0  0  0  0  0  0
   12.2361   -6.3376    0.0000 H   0  0  0  0  0  0  0  0  0  0  0  0
    8.6637   -6.7501    0.0000 C   0  0  0  0  0  0  0  0  0  0  0  0
    7.9493   -7.1626    0.0000 C   0  0  0  0  0  0  0  0  0  0  0  0
    8.6637   -5.9251    0.0000 O   0  0  0  0  0  0  0  0  0  0  0  0
    7.2348   -6.7501    0.0000 C   0  0  0  0  0  0  0  0  0  0  0  0
    7.1485   -5.9297    0.0000 C   0  0  0  0  0  0  0  0  0  0  0  0
    6.3416   -5.7581    0.0000 C   0  0  0  0  0  0  0  0  0  0  0  0
    5.9291   -6.4726    0.0000 N   0  0  0  0  0  0  0  0  0  0  0  0
    6.4811   -7.0857    0.0000 C   0  0  0  0  0  0  0  0  0  0  0  0
    6.3096   -7.8927    0.0000 O   0  0  0  0  0  0  0  0  0  0  0  0
    7.7006   -5.3166    0.0000 C   0  0  0  0  0  0  0  0  0  0  0  0
    7.4456   -4.5320    0.0000 C   0  0  0  0  0  0  0  0  0  0  0  0
    6.6387   -4.3604    0.0000 C   0  0  0  0  0  0  0  0  0  0  0  0
    6.0866   -4.9735    0.0000 C   0  0  0  0  0  0  0  0  0  0  0  0
    5.1086   -6.5588    0.0000 C   0  0  2  0  0  0  0  0  0  0  0  0
    4.6237   -5.8914    0.0000 O   0  0  0  0  0  0  0  0  0  0  0  0
    3.8032   -5.9776    0.0000 C   0  0  1  0  0  0  0  0  0  0  0  0
    3.4676   -6.7313    0.0000 C   0  0  2  0  0  0  0  0  0  0  0  0
    3.9526   -7.3988    0.0000 C   0  0  1  0  0  0  0  0  0  0  0  0
    4.7730   -7.3125    0.0000 C   0  0  1  0  0  0  0  0  0  0  0  0
    3.3183   -5.3102    0.0000 C   0  0  0  0  0  0  0  0  0  0  0  0
    3.6170   -8.1524    0.0000 O   0  0  0  0  0  0  0  0  0  0  0  0
    5.2580   -7.9800    0.0000 O   0  0  0  0  0  0  0  0  0  0  0  0
    2.6472   -6.8176    0.0000 O   0  0  0  0  0  0  0  0  0  0  0  0
    2.4978   -5.3964    0.0000 O   0  0  0  0  0  0  0  0  0  0  0  0
    5.5211   -5.8444    0.0000 H   0  0  0  0  0  0  0  0  0  0  0  0
   10.8071  -10.4627    0.0000 O   0  0  0  0  0  0  0  0  0  0  0  0
   10.0927  -10.8752    0.0000 C   0  0  0  0  0  0  0  0  0  0  0  0
    9.3782  -10.4626    0.0000 C   0  0  0  0  0  0  0  0  0  0  0  0
   10.0927  -11.7001    0.0000 O   0  0  0  0  0  0  0  0  0  0  0  0
    8.6637  -10.8751    0.0000 C   0  0  0  0  0  0  0  0  0  0  0  0
    7.9493  -10.4626    0.0000 C   0  0  0  0  0  0  0  0  0  0  0  0
    7.9493   -9.6376    0.0000 C   0  0  0  0  0  0  0  0  0  0  0  0
    7.2348   -9.2251    0.0000 C   0  0  0  0  0  0  0  0  0  0  0  0
    6.5203   -9.6376    0.0000 C   0  0  0  0  0  0  0  0  0  0  0  0
    6.5203  -10.4626    0.0000 C   0  0  0  0  0  0  0  0  0  0  0  0
    7.2348  -10.8751    0.0000 C   0  0  0  0  0  0  0  0  0  0  0  0
    5.8058   -9.2251    0.0000 O   0  0  0  0  0  0  0  0  0  0  0  0
    5.8058  -10.8751    0.0000 O   0  0  0  0  0  0  0  0  0  0  0  0
    5.0914  -10.4626    0.0000 C   0  0  0  0  0  0  0  0  0  0  0  0
  1  2  2  0  0  0  0
  2  3  1  0  0  0  0
  3  4  2  0  0  0  0
  4  5  1  0  0  0  0
  5  6  2  0  0  0  0
  6  1  1  0  0  0  0
  4  7  1  0  0  0  0
  7  8  1  0  0  0  0
  8  9  2  0  0  0  0
  9 10  1  0  0  0  0
 10  5  1  0  0  0  0
 11 12  2  0  0  0  0
 12  9  1  0  0  0  0
 11 13  1  0  0  0  0
 13 14  2  0  0  0  0
 14 15  1  0  0  0  0
 15 16  2  0  0  0  0
 16 12  1  0  0  0  0
  3 17  1  0  0  0  0
 18  7  2  0  0  0  0
  1 19  1  0  0  0  0
 19 20  1  0  0  0  0
 21  2  1  0  0  0  0
 14 22  1  0  0  0  0
 21 23  1  0  0  0  0
 23 24  1  0  0  0  0
 24 25  1  0  0  0  0
 25 26  1  0  0  0  0
 26 27  1  0  0  0  0
 27 21  1  0  0  0  0
 24 28  1  1  0  0  0
 26 29  1  1  0  0  0
 27 30  1  6  0  0  0
 25 31  1  6  0  0  0
 28 32  1  0  0  0  0
 33 30  1  1  0  0  0
 33 34  1  0  0  0  0
 34 35  1  0  0  0  0
 35 36  1  0  0  0  0
 36 37  1  0  0  0  0
 37 38  1  0  0  0  0
 38 33  1  0  0  0  0
 37 39  1  1  0  0  0
 35 42  1  1  0  0  0
 38 40  1  6  0  0  0
 36 41  1  6  0  0  0
 21 43  1  6  0  0  0
 32 44  1  0  0  0  0
 44 45  1  0  0  0  0
 44 46  2  0  0  0  0
 45 47  1  0  0  0  0
 47 48  1  0  0  0  0
 48 49  2  0  0  0  0
 49 50  1  0  0  0  0
 50 51  1  0  0  0  0
 51 47  1  0  0  0  0
 51 52  2  0  0  0  0
 48 53  1  0  0  0  0
 53 54  2  0  0  0  0
 54 55  1  0  0  0  0
 55 56  2  0  0  0  0
 56 49  1  0  0  0  0
 50 57  1  0  0  0  0
 57 58  1  0  0  0  0
 58 59  1  0  0  0  0
 59 60  1  0  0  0  0
 60 61  1  0  0  0  0
 61 62  1  0  0  0  0
 62 57  1  0  0  0  0
 59 63  1  1  0  0  0
 61 64  1  1  0  0  0
 62 65  1  6  0  0  0
 60 66  1  6  0  0  0
 63 67  1  0  0  0  0
 57 68  1  6  0  0  0
 42 69  1  0  0  0  0
 69 70  1  0  0  0  0
 70 71  1  0  0  0  0
 70 72  2  0  0  0  0
 71 73  2  0  0  0  0
 73 74  1  0  0  0  0
 74 75  2  0  0  0  0
 75 76  1  0  0  0  0
 76 77  2  0  0  0  0
 77 78  1  0  0  0  0
 78 79  2  0  0  0  0
 79 74  1  0  0  0  0
 77 80  1  0  0  0  0
 78 81  1  0  0  0  0
 81 82  1  0  0  0  0
M  END
>  <cdx:fragmentId>
5

$$$$
