98466.cdx
  Mrv1902 05222410272D          

 70 77  0  0  0  0            999 V2000
   15.7678   -8.2497    0.0000 C   0  0  0  0  0  0  0  0  0  0  0  0
   15.7653   -9.0747    0.0000 C   0  0  0  0  0  0  0  0  0  0  0  0
   15.0496   -9.4849    0.0000 C   0  0  0  0  0  0  0  0  0  0  0  0
   14.3364   -9.0702    0.0000 C   0  0  0  0  0  0  0  0  0  0  0  0
   13.6206   -9.4805    0.0000 C   0  0  0  0  0  0  0  0  0  0  0  0
   12.9074   -9.0658    0.0000 C   0  0  0  0  0  0  0  0  0  0  0  0
   12.9100   -8.2408    0.0000 C   0  0  0  0  0  0  0  0  0  0  0  0
   13.6257   -7.8305    0.0000 C   0  0  0  0  0  0  0  0  0  0  0  0
   14.3389   -8.2452    0.0000 C   0  0  0  0  0  0  0  0  0  0  0  0
   15.0547   -7.8350    0.0000 O   0  0  0  0  0  0  0  0  0  0  0  0
   15.0470  -10.3099    0.0000 O   0  0  0  0  0  0  0  0  0  0  0  0
   12.1968   -7.8261    0.0000 O   0  0  0  0  0  0  0  0  0  0  0  0
   11.4823   -8.2386    0.0000 C   0  0  0  0  0  0  0  0  0  0  0  0
   16.4836   -7.8394    0.0000 C   0  0  0  0  0  0  0  0  0  0  0  0
   16.4861   -7.0144    0.0000 C   0  0  0  0  0  0  0  0  0  0  0  0
   17.2019   -6.6041    0.0000 C   0  0  0  0  0  0  0  0  0  0  0  0
   17.9151   -7.0188    0.0000 C   0  0  0  0  0  0  0  0  0  0  0  0
   17.9125   -7.8438    0.0000 C   0  0  0  0  0  0  0  0  0  0  0  0
   17.1968   -8.2541    0.0000 C   0  0  0  0  0  0  0  0  0  0  0  0
   18.6308   -6.6085    0.0000 O   0  0  0  0  0  0  0  0  0  0  0  0
   13.6181  -10.3055    0.0000 O   0  0  0  0  0  0  0  0  0  0  0  0
   12.1748  -11.9511    0.0000 O   0  0  0  0  0  0  0  0  0  0  0  0
   12.1691  -12.7760    0.0000 C   0  0  1  0  0  0  0  0  0  0  0  0
   12.8808  -13.1934    0.0000 C   0  0  2  0  0  0  0  0  0  0  0  0
   13.5981  -12.7858    0.0000 C   0  0  1  0  0  0  0  0  0  0  0  0
   13.6037  -11.9608    0.0000 C   0  0  2  0  0  0  0  0  0  0  0  0
   12.8921  -11.5435    0.0000 C   0  0  2  0  0  0  0  0  0  0  0  0
   14.3210  -11.5532    0.0000 O   0  0  0  0  0  0  0  0  0  0  0  0
   14.3097  -13.2032    0.0000 O   0  0  0  0  0  0  0  0  0  0  0  0
   12.8751  -14.0184    0.0000 O   0  0  0  0  0  0  0  0  0  0  0  0
   12.8977  -10.7185    0.0000 O   0  0  0  0  0  0  0  0  0  0  0  0
   11.4800   -9.0587    0.0000 O   0  0  0  0  0  0  0  0  0  0  0  0
   12.1917   -9.4761    0.0000 C   0  0  2  0  0  0  0  0  0  0  0  0
   12.1860  -10.3011    0.0000 C   0  0  1  0  0  0  0  0  0  0  0  0
   11.4688  -10.7087    0.0000 C   0  0  2  0  0  0  0  0  0  0  0  0
   10.7571  -10.2913    0.0000 C   0  0  1  0  0  0  0  0  0  0  0  0
   10.7628   -9.4664    0.0000 C   0  0  1  0  0  0  0  0  0  0  0  0
    7.1935   -9.0099    0.0000 C   0  0  2  0  0  0  0  0  0  0  0  0
    7.1185   -8.1884    0.0000 C   0  0  0  0  0  0  0  0  0  0  0  0
   10.0399  -10.6989    0.0000 O   0  0  0  0  0  0  0  0  0  0  0  0
   11.4631  -11.5337    0.0000 O   0  0  0  0  0  0  0  0  0  0  0  0
    6.3140   -8.0058    0.0000 C   0  0  0  0  0  0  0  0  0  0  0  0
   12.1917   -8.6511    0.0000 H   0  0  0  0  0  0  0  0  0  0  0  0
   11.4519  -13.1837    0.0000 C   0  0  0  0  0  0  0  0  0  0  0  0
   11.4519  -14.0087    0.0000 O   0  0  0  0  0  0  0  0  0  0  0  0
    5.8917   -8.7146    0.0000 N   0  0  0  0  0  0  0  0  0  0  0  0
    6.4353   -9.3352    0.0000 C   0  0  0  0  0  0  0  0  0  0  0  0
    6.2528  -10.1397    0.0000 O   0  0  0  0  0  0  0  0  0  0  0  0
    7.6789   -7.5829    0.0000 C   0  0  0  0  0  0  0  0  0  0  0  0
    7.4347   -6.7948    0.0000 C   0  0  0  0  0  0  0  0  0  0  0  0
    6.6301   -6.6123    0.0000 C   0  0  0  0  0  0  0  0  0  0  0  0
    6.0698   -7.2178    0.0000 C   0  0  0  0  0  0  0  0  0  0  0  0
    7.1935   -9.8349    0.0000 O   0  0  0  0  0  0  0  0  0  0  0  0
    5.0701   -8.7896    0.0000 C   0  0  2  0  0  0  0  0  0  0  0  0
    4.5944   -8.1156    0.0000 O   0  0  0  0  0  0  0  0  0  0  0  0
    3.7728   -8.1906    0.0000 C   0  0  1  0  0  0  0  0  0  0  0  0
    3.4270   -8.9396    0.0000 C   0  0  2  0  0  0  0  0  0  0  0  0
    3.9027   -9.6136    0.0000 C   0  0  1  0  0  0  0  0  0  0  0  0
    4.7243   -9.5386    0.0000 C   0  0  1  0  0  0  0  0  0  0  0  0
    5.4924   -8.0808    0.0000 H   0  0  0  0  0  0  0  0  0  0  0  0
    8.6336   -8.2045    0.0000 O   0  0  0  0  0  0  0  0  0  0  0  0
    7.9023   -9.4322    0.0000 C   0  0  0  0  0  0  0  0  0  0  0  0
    8.6223   -9.0295    0.0000 C   0  0  0  0  0  0  0  0  0  0  0  0
    9.3311   -9.4517    0.0000 O   0  0  0  0  0  0  0  0  0  0  0  0
   10.0511   -9.0490    0.0000 C   0  0  0  0  0  0  0  0  0  0  0  0
    3.2970   -7.5166    0.0000 C   0  0  0  0  0  0  0  0  0  0  0  0
    3.5569  -10.3627    0.0000 O   0  0  0  0  0  0  0  0  0  0  0  0
    2.6054   -9.0147    0.0000 O   0  0  0  0  0  0  0  0  0  0  0  0
    5.2001  -10.2126    0.0000 O   0  0  0  0  0  0  0  0  0  0  0  0
    2.4755   -7.5916    0.0000 O   0  0  0  0  0  0  0  0  0  0  0  0
 33  6  1  0  0  0  0
  1  2  2  0  0  0  0
  2  3  1  0  0  0  0
  3  4  1  0  0  0  0
  4  5  1  0  0  0  0
  5  6  2  0  0  0  0
  6  7  1  0  0  0  0
  7  8  2  0  0  0  0
  8  9  1  0  0  0  0
  4  9  2  0  0  0  0
  9 10  1  0  0  0  0
  1 10  1  0  0  0  0
  3 11  2  0  0  0  0
 12 13  1  0  0  0  0
  7 12  1  0  0  0  0
 14 15  1  0  0  0  0
 15 16  2  0  0  0  0
 16 17  1  0  0  0  0
 17 18  2  0  0  0  0
 18 19  1  0  0  0  0
 14 19  2  0  0  0  0
 17 20  1  0  0  0  0
  1 14  1  0  0  0  0
  5 21  1  0  0  0  0
 22 23  1  0  0  0  0
 23 24  1  0  0  0  0
 24 25  1  0  0  0  0
 25 26  1  0  0  0  0
 26 27  1  0  0  0  0
 22 27  1  0  0  0  0
 26 28  1  6  0  0  0
 25 29  1  1  0  0  0
 24 30  1  6  0  0  0
 32 33  1  0  0  0  0
 33 34  1  0  0  0  0
 34 35  1  0  0  0  0
 35 36  1  0  0  0  0
 36 37  1  0  0  0  0
 32 37  1  0  0  0  0
 37 65  1  1  0  0  0
 36 40  1  6  0  0  0
 35 41  1  1  0  0  0
 34 31  1  6  0  0  0
 27 31  1  1  0  0  0
 23 44  1  1  0  0  0
 33 43  1  6  0  0  0
 44 45  1  0  0  0  0
 38 39  1  0  0  0  0
 39 42  2  0  0  0  0
 42 46  1  0  0  0  0
 46 47  1  0  0  0  0
 47 38  1  0  0  0  0
 47 48  2  0  0  0  0
 39 49  1  0  0  0  0
 49 50  2  0  0  0  0
 50 51  1  0  0  0  0
 51 52  2  0  0  0  0
 52 42  1  0  0  0  0
 38 53  1  1  0  0  0
 46 54  1  0  0  0  0
 54 55  1  0  0  0  0
 55 56  1  0  0  0  0
 56 57  1  0  0  0  0
 57 58  1  0  0  0  0
 58 59  1  0  0  0  0
 59 54  1  0  0  0  0
 62 38  1  0  0  0  0
 54 60  1  6  0  0  0
 63 61  2  0  0  0  0
 63 62  1  0  0  0  0
 64 63  1  0  0  0  0
 65 64  1  0  0  0  0
 56 66  1  1  0  0  0
 58 67  1  1  0  0  0
 57 68  1  6  0  0  0
 59 69  1  6  0  0  0
 66 70  1  0  0  0  0
M  END
>  <cdx:fragmentId>
133584

$$$$
