98467.cdx
  Mrv1902 05222410272D          

 69 76  0  0  0  0            999 V2000
   14.3653   -8.3322    0.0000 C   0  0  0  0  0  0  0  0  0  0  0  0
   14.3628   -9.1572    0.0000 C   0  0  0  0  0  0  0  0  0  0  0  0
   13.6471   -9.5674    0.0000 C   0  0  0  0  0  0  0  0  0  0  0  0
   12.9339   -9.1527    0.0000 C   0  0  0  0  0  0  0  0  0  0  0  0
   12.2181   -9.5630    0.0000 C   0  0  0  0  0  0  0  0  0  0  0  0
   11.5049   -9.1483    0.0000 C   0  0  0  0  0  0  0  0  0  0  0  0
   11.5075   -8.3233    0.0000 C   0  0  0  0  0  0  0  0  0  0  0  0
   12.2232   -7.9130    0.0000 C   0  0  0  0  0  0  0  0  0  0  0  0
   12.9364   -8.3277    0.0000 C   0  0  0  0  0  0  0  0  0  0  0  0
   13.6522   -7.9175    0.0000 O   0  0  0  0  0  0  0  0  0  0  0  0
   13.6445  -10.3924    0.0000 O   0  0  0  0  0  0  0  0  0  0  0  0
   10.7943   -7.9086    0.0000 O   0  0  0  0  0  0  0  0  0  0  0  0
   10.0798   -8.3211    0.0000 C   0  0  0  0  0  0  0  0  0  0  0  0
   15.0811   -7.9219    0.0000 C   0  0  0  0  0  0  0  0  0  0  0  0
   15.0836   -7.0969    0.0000 C   0  0  0  0  0  0  0  0  0  0  0  0
   15.7994   -6.6866    0.0000 C   0  0  0  0  0  0  0  0  0  0  0  0
   16.5126   -7.1013    0.0000 C   0  0  0  0  0  0  0  0  0  0  0  0
   16.5100   -7.9263    0.0000 C   0  0  0  0  0  0  0  0  0  0  0  0
   15.7943   -8.3366    0.0000 C   0  0  0  0  0  0  0  0  0  0  0  0
   17.2283   -6.6910    0.0000 O   0  0  0  0  0  0  0  0  0  0  0  0
   12.2156  -10.3880    0.0000 O   0  0  0  0  0  0  0  0  0  0  0  0
   10.7723  -12.0336    0.0000 O   0  0  0  0  0  0  0  0  0  0  0  0
   10.7666  -12.8585    0.0000 C   0  0  1  0  0  0  0  0  0  0  0  0
   11.4783  -13.2759    0.0000 C   0  0  2  0  0  0  0  0  0  0  0  0
   12.1956  -12.8683    0.0000 C   0  0  1  0  0  0  0  0  0  0  0  0
   12.2012  -12.0433    0.0000 C   0  0  2  0  0  0  0  0  0  0  0  0
   11.4896  -11.6260    0.0000 C   0  0  2  0  0  0  0  0  0  0  0  0
   12.9185  -11.6357    0.0000 O   0  0  0  0  0  0  0  0  0  0  0  0
   12.9072  -13.2857    0.0000 O   0  0  0  0  0  0  0  0  0  0  0  0
   11.4726  -14.1009    0.0000 O   0  0  0  0  0  0  0  0  0  0  0  0
   11.4952  -10.8010    0.0000 O   0  0  0  0  0  0  0  0  0  0  0  0
   10.0775   -9.1412    0.0000 O   0  0  0  0  0  0  0  0  0  0  0  0
   10.7892   -9.5586    0.0000 C   0  0  2  0  0  0  0  0  0  0  0  0
   10.7835  -10.3836    0.0000 C   0  0  1  0  0  0  0  0  0  0  0  0
   10.0663  -10.7912    0.0000 C   0  0  2  0  0  0  0  0  0  0  0  0
    9.3546  -10.3738    0.0000 C   0  0  1  0  0  0  0  0  0  0  0  0
    9.3603   -9.5489    0.0000 C   0  0  1  0  0  0  0  0  0  0  0  0
    8.6374  -10.7814    0.0000 O   0  0  0  0  0  0  0  0  0  0  0  0
   10.0606  -11.6162    0.0000 O   0  0  0  0  0  0  0  0  0  0  0  0
   10.7892   -8.7336    0.0000 H   0  0  0  0  0  0  0  0  0  0  0  0
   10.0494  -13.2662    0.0000 C   0  0  0  0  0  0  0  0  0  0  0  0
   10.0494  -14.0912    0.0000 O   0  0  0  0  0  0  0  0  0  0  0  0
    3.2329   -8.1203    0.0000 O   0  0  0  0  0  0  0  0  0  0  0  0
    2.4095   -8.1722    0.0000 C   0  0  1  0  0  0  0  0  0  0  0  0
    2.0428   -8.9112    0.0000 C   0  0  2  0  0  0  0  0  0  0  0  0
    2.4994   -9.5983    0.0000 C   0  0  1  0  0  0  0  0  0  0  0  0
    3.3228   -9.5464    0.0000 C   0  0  2  0  0  0  0  0  0  0  0  0
    3.6895   -8.8074    0.0000 C   0  0  2  0  0  0  0  0  0  0  0  0
    6.5025   -9.5293    0.0000 C   0  0  0  0  0  0  0  0  0  0  0  0
    5.8058   -9.0873    0.0000 C   0  0  0  0  0  0  0  0  0  0  0  0
    5.7540   -8.2640    0.0000 C   0  0  0  0  0  0  0  0  0  0  0  0
    4.9549   -8.0589    0.0000 C   0  0  0  0  0  0  0  0  0  0  0  0
    4.5129   -8.7555    0.0000 N   0  0  0  0  0  0  0  0  0  0  0  0
    5.0388   -9.3911    0.0000 C   0  0  0  0  0  0  0  0  0  0  0  0
    4.8337  -10.1902    0.0000 O   0  0  0  0  0  0  0  0  0  0  0  0
    6.3311   -7.6745    0.0000 C   0  0  0  0  0  0  0  0  0  0  0  0
    6.1092   -6.8799    0.0000 C   0  0  0  0  0  0  0  0  0  0  0  0
    5.3101   -6.6748    0.0000 C   0  0  0  0  0  0  0  0  0  0  0  0
    4.7329   -7.2643    0.0000 C   0  0  0  0  0  0  0  0  0  0  0  0
    7.2254   -8.2967    0.0000 O   0  0  0  0  0  0  0  0  0  0  0  0
    1.9529   -7.4851    0.0000 C   0  0  0  0  0  0  0  0  0  0  0  0
    7.2197   -9.1217    0.0000 C   0  0  0  0  0  0  0  0  0  0  0  0
    8.6486   -9.1315    0.0000 C   0  0  0  0  0  0  0  0  0  0  0  0
    7.9314   -9.5391    0.0000 O   0  0  0  0  0  0  0  0  0  0  0  0
    2.1326  -10.3373    0.0000 O   0  0  0  0  0  0  0  0  0  0  0  0
    1.2194   -8.9631    0.0000 O   0  0  0  0  0  0  0  0  0  0  0  0
    3.7794  -10.2335    0.0000 O   0  0  0  0  0  0  0  0  0  0  0  0
    1.1295   -7.5369    0.0000 O   0  0  0  0  0  0  0  0  0  0  0  0
    4.0563   -8.0684    0.0000 H   0  0  0  0  0  0  0  0  0  0  0  0
 33  6  1  0  0  0  0
  1  2  2  0  0  0  0
  2  3  1  0  0  0  0
 43 48  1  0  0  0  0
 44 43  1  0  0  0  0
  3  4  1  0  0  0  0
  4  5  1  0  0  0  0
  5  6  2  0  0  0  0
  6  7  1  0  0  0  0
  7  8  2  0  0  0  0
  8  9  1  0  0  0  0
  4  9  2  0  0  0  0
  9 10  1  0  0  0  0
  1 10  1  0  0  0  0
  3 11  2  0  0  0  0
 12 13  1  0  0  0  0
  7 12  1  0  0  0  0
 14 15  1  0  0  0  0
 15 16  2  0  0  0  0
 16 17  1  0  0  0  0
 17 18  2  0  0  0  0
 18 19  1  0  0  0  0
 14 19  2  0  0  0  0
 17 20  1  0  0  0  0
  1 14  1  0  0  0  0
  5 21  1  0  0  0  0
 22 23  1  0  0  0  0
 23 24  1  0  0  0  0
 24 25  1  0  0  0  0
 25 26  1  0  0  0  0
 26 27  1  0  0  0  0
 22 27  1  0  0  0  0
 26 28  1  6  0  0  0
 25 29  1  1  0  0  0
 24 30  1  6  0  0  0
 32 33  1  0  0  0  0
 33 34  1  0  0  0  0
 34 35  1  0  0  0  0
 35 36  1  0  0  0  0
 36 37  1  0  0  0  0
 32 37  1  0  0  0  0
 45 44  1  0  0  0  0
 37 63  1  1  0  0  0
 36 38  1  6  0  0  0
 35 39  1  1  0  0  0
 34 31  1  6  0  0  0
 27 31  1  1  0  0  0
 23 41  1  1  0  0  0
 33 40  1  6  0  0  0
 41 42  1  0  0  0  0
 46 45  1  0  0  0  0
 47 46  1  0  0  0  0
 48 47  1  0  0  0  0
 49 50  1  0  0  0  0
 50 51  1  0  0  0  0
 51 52  2  0  0  0  0
 52 53  1  0  0  0  0
 53 54  1  0  0  0  0
 54 50  1  0  0  0  0
 54 55  2  0  0  0  0
 51 56  1  0  0  0  0
 56 57  2  0  0  0  0
 57 58  1  0  0  0  0
 58 59  2  0  0  0  0
 59 52  1  0  0  0  0
 62 60  2  0  0  0  0
 62 49  1  0  0  0  0
 64 62  1  0  0  0  0
 63 64  1  0  0  0  0
 53 48  1  0  0  0  0
 44 61  1  1  0  0  0
 46 65  1  1  0  0  0
 45 66  1  6  0  0  0
 47 67  1  6  0  0  0
 61 68  1  0  0  0  0
 48 69  1  6  0  0  0
M  END
>  <cdx:fragmentId>
133584

$$$$
