98476.cdx
  Mrv1902 05222410262D          

 46 49  0  0  0  0            999 V2000
    9.0840   -6.9935    0.0000 O   0  0  0  0  0  0  0  0  0  0  0  0
    8.4410   -7.3647    0.0000 C   0  0  1  0  0  0  0  0  0  0  0  0
    8.4410   -8.1072    0.0000 C   0  0  2  0  0  0  0  0  0  0  0  0
    9.0840   -8.4785    0.0000 O   0  0  0  0  0  0  0  0  0  0  0  0
    7.7980   -8.4785    0.0000 C   0  0  1  0  0  0  0  0  0  0  0  0
    7.7980   -9.2210    0.0000 O   0  0  0  0  0  0  0  0  0  0  0  0
    7.1549   -8.1072    0.0000 C   0  0  2  0  0  0  0  0  0  0  0  0
    6.5119   -8.4785    0.0000 O   0  0  0  0  0  0  0  0  0  0  0  0
    7.1549   -7.3647    0.0000 C   0  0  2  0  0  0  0  0  0  0  0  0
    7.7980   -6.9935    0.0000 O   0  0  0  0  0  0  0  0  0  0  0  0
    6.5119   -6.9935    0.0000 C   0  0  0  0  0  0  0  0  0  0  0  0
    7.1549   -9.5922    0.0000 C   0  0  1  0  0  0  0  0  0  0  0  0
    7.1549  -10.3347    0.0000 C   0  0  2  0  0  0  0  0  0  0  0  0
    7.7980  -10.7060    0.0000 O   0  0  0  0  0  0  0  0  0  0  0  0
    6.5119  -10.7060    0.0000 C   0  0  2  0  0  0  0  0  0  0  0  0
    6.5119  -11.4485    0.0000 O   0  0  0  0  0  0  0  0  0  0  0  0
    5.8689  -10.3347    0.0000 C   0  0  1  0  0  0  0  0  0  0  0  0
    5.2259  -10.7060    0.0000 O   0  0  0  0  0  0  0  0  0  0  0  0
    5.8689   -9.5922    0.0000 C   0  0  1  0  0  0  0  0  0  0  0  0
    6.5119   -9.2210    0.0000 O   0  0  0  0  0  0  0  0  0  0  0  0
    5.2259   -9.2210    0.0000 C   0  0  0  0  0  0  0  0  0  0  0  0
    9.7270   -7.3647    0.0000 C   0  0  0  0  0  0  0  0  0  0  0  0
   10.3700   -6.9935    0.0000 C   0  0  0  0  0  0  0  0  0  0  0  0
   11.0131   -7.3647    0.0000 C   0  0  0  0  0  0  0  0  0  0  0  0
   11.6561   -6.9935    0.0000 C   0  0  0  0  0  0  0  0  0  0  0  0
   12.2991   -7.3647    0.0000 C   0  0  0  0  0  0  0  0  0  0  0  0
   12.2991   -8.1072    0.0000 C   0  0  0  0  0  0  0  0  0  0  0  0
   11.6561   -8.4785    0.0000 C   0  0  0  0  0  0  0  0  0  0  0  0
   11.0131   -8.1072    0.0000 C   0  0  0  0  0  0  0  0  0  0  0  0
   12.9421   -6.9935    0.0000 O   0  0  0  0  0  0  0  0  0  0  0  0
   13.5852   -7.3647    0.0000 C   0  0  0  0  0  0  0  0  0  0  0  0
   12.9421   -8.4785    0.0000 O   0  0  0  0  0  0  0  0  0  0  0  0
    5.2259   -6.9935    0.0000 C   0  0  0  0  0  0  0  0  0  0  0  0
    4.5828   -7.3647    0.0000 C   0  0  0  0  0  0  0  0  0  0  0  0
    3.9398   -6.9935    0.0000 C   0  0  0  0  0  0  0  0  0  0  0  0
    5.2259   -6.2510    0.0000 O   0  0  0  0  0  0  0  0  0  0  0  0
    5.8689   -7.3647    0.0000 O   0  0  0  0  0  0  0  0  0  0  0  0
    3.2968   -7.3647    0.0000 C   0  0  0  0  0  0  0  0  0  0  0  0
    2.6538   -6.9935    0.0000 C   0  0  0  0  0  0  0  0  0  0  0  0
    2.0107   -7.3647    0.0000 C   0  0  0  0  0  0  0  0  0  0  0  0
    2.0107   -8.1072    0.0000 C   0  0  0  0  0  0  0  0  0  0  0  0
    2.6538   -8.4785    0.0000 C   0  0  0  0  0  0  0  0  0  0  0  0
    3.2968   -8.1072    0.0000 C   0  0  0  0  0  0  0  0  0  0  0  0
    1.3677   -6.9935    0.0000 O   0  0  0  0  0  0  0  0  0  0  0  0
    0.7247   -7.3647    0.0000 C   0  0  0  0  0  0  0  0  0  0  0  0
    1.3677   -8.4785    0.0000 O   0  0  0  0  0  0  0  0  0  0  0  0
  2  1  1  1  0  0  0
  2  3  1  0  0  0  0
  3  4  1  6  0  0  0
  3  5  1  0  0  0  0
  5  6  1  1  0  0  0
  5  7  1  0  0  0  0
  7  8  1  6  0  0  0
  7  9  1  0  0  0  0
  9 10  1  0  0  0  0
  9 11  1  1  0  0  0
  2 10  1  0  0  0  0
 12 13  1  0  0  0  0
 13 14  1  6  0  0  0
 13 15  1  0  0  0  0
 15 16  1  6  0  0  0
 15 17  1  0  0  0  0
 17 18  1  1  0  0  0
 17 19  1  0  0  0  0
 19 20  1  0  0  0  0
 19 21  1  6  0  0  0
 12 20  1  0  0  0  0
 12  6  1  1  0  0  0
 22 23  1  0  0  0  0
 24 25  1  0  0  0  0
 25 26  2  0  0  0  0
 26 27  1  0  0  0  0
 27 28  2  0  0  0  0
 28 29  1  0  0  0  0
 24 29  2  0  0  0  0
 30 31  1  0  0  0  0
 26 30  1  0  0  0  0
 27 32  1  0  0  0  0
 23 24  1  0  0  0  0
  1 22  1  0  0  0  0
 33 34  1  0  0  0  0
 34 35  2  0  0  0  0
 33 36  2  0  0  0  0
 33 37  1  0  0  0  0
 38 39  1  0  0  0  0
 39 40  2  0  0  0  0
 40 41  1  0  0  0  0
 41 42  2  0  0  0  0
 42 43  1  0  0  0  0
 38 43  2  0  0  0  0
 44 45  1  0  0  0  0
 40 44  1  0  0  0  0
 41 46  1  0  0  0  0
 35 38  1  0  0  0  0
 11 37  1  0  0  0  0
M  END
>  <cdx:fragmentId>
3

$$$$
