98475.cdx
  Mrv1902 05222410262D          

  8  7  0  0  0  0            999 V2000
    7.1956   -8.3135    0.0000 C   0  0  0  0  0  0  0  0  0  0  0  0
    6.4812   -8.7260    0.0000 C   0  0  0  0  0  0  0  0  0  0  0  0
    6.8937   -9.4404    0.0000 C   0  0  0  0  0  0  0  0  0  0  0  0
    7.1956   -7.4885    0.0000 O   0  0  0  0  0  0  0  0  0  0  0  0
    7.9101   -8.7260    0.0000 O   0  0  0  0  0  0  0  0  0  0  0  0
    5.7667   -9.1385    0.0000 O   0  0  0  0  0  0  0  0  0  0  0  0
    8.6246   -8.3135    0.0000 C   0  0  0  0  0  0  0  0  0  0  0  0
    6.0687   -8.0115    0.0000 C   0  0  0  0  0  0  0  0  0  0  0  0
  1  2  1  0  0  0  0
  2  3  1  0  0  0  0
  1  4  2  0  0  0  0
  1  5  1  0  0  0  0
  2  6  1  0  0  0  0
  5  7  1  0  0  0  0
  2  8  1  0  0  0  0
M  END
>  <cdx:fragmentId>
5

$$$$
