98477.cdx
  Mrv1902 05222410272D          

 31 33  0  0  0  0            999 V2000
    7.9376   -9.8810    0.0000 C   0  0  0  0  0  0  0  0  0  0  0  0
    8.6521   -9.4685    0.0000 C   0  0  0  0  0  0  0  0  0  0  0  0
    8.6521   -8.6435    0.0000 C   0  0  0  0  0  0  0  0  0  0  0  0
    7.9376   -8.2310    0.0000 C   0  0  0  0  0  0  0  0  0  0  0  0
    7.2231   -8.6435    0.0000 C   0  0  0  0  0  0  0  0  0  0  0  0
    6.5087   -8.2310    0.0000 C   0  0  0  0  0  0  0  0  0  0  0  0
    5.7942   -8.6435    0.0000 C   0  0  0  0  0  0  0  0  0  0  0  0
    5.7942   -9.4685    0.0000 C   0  0  0  0  0  0  0  0  0  0  0  0
    6.5087   -9.8810    0.0000 C   0  0  0  0  0  0  0  0  0  0  0  0
    7.2231   -9.4685    0.0000 C   0  0  0  0  0  0  0  0  0  0  0  0
    7.9376  -10.7060    0.0000 O   0  0  0  0  0  0  0  0  0  0  0  0
    7.9376   -7.4060    0.0000 O   0  0  0  0  0  0  0  0  0  0  0  0
    6.5087   -7.4060    0.0000 O   0  0  0  0  0  0  0  0  0  0  0  0
    5.0797   -9.8810    0.0000 O   0  0  0  0  0  0  0  0  0  0  0  0
    4.3653   -9.4685    0.0000 C   0  0  0  0  0  0  0  0  0  0  0  0
    9.3666   -9.8810    0.0000 C   0  0  0  0  0  0  0  0  0  0  0  0
    9.3666   -8.2310    0.0000 C   0  0  0  0  0  0  0  0  0  0  0  0
   10.0810   -8.6435    0.0000 C   0  0  0  0  0  0  0  0  0  0  0  0
    9.3666   -7.4060    0.0000 O   0  0  0  0  0  0  0  0  0  0  0  0
    5.7942   -6.9935    0.0000 C   0  0  2  0  0  0  0  0  0  0  0  0
    5.7942   -6.1685    0.0000 O   0  0  0  0  0  0  0  0  0  0  0  0
    5.0797   -5.7560    0.0000 C   0  0  1  0  0  0  0  0  0  0  0  0
    4.3653   -6.1685    0.0000 C   0  0  2  0  0  0  0  0  0  0  0  0
    4.3653   -6.9935    0.0000 C   0  0  1  0  0  0  0  0  0  0  0  0
    5.0797   -7.4060    0.0000 C   0  0  1  0  0  0  0  0  0  0  0  0
    3.6508   -7.4060    0.0000 O   0  0  0  0  0  0  0  0  0  0  0  0
    5.0797   -4.9310    0.0000 C   0  0  0  0  0  0  0  0  0  0  0  0
    3.6508   -5.7560    0.0000 O   0  0  0  0  0  0  0  0  0  0  0  0
    5.0797   -8.2310    0.0000 O   0  0  0  0  0  0  0  0  0  0  0  0
    4.3653   -4.5185    0.0000 O   0  0  0  0  0  0  0  0  0  0  0  0
    6.5087  -10.7060    0.0000 O   0  0  0  0  0  0  0  0  0  0  0  0
  1  2  1  0  0  0  0
  2  3  2  0  0  0  0
  3  4  1  0  0  0  0
  4  5  1  0  0  0  0
  5  6  1  0  0  0  0
  6  7  2  0  0  0  0
  7  8  1  0  0  0  0
  8  9  2  0  0  0  0
  9 10  1  0  0  0  0
  1 10  1  0  0  0  0
  5 10  2  0  0  0  0
  1 11  2  0  0  0  0
  4 12  2  0  0  0  0
  6 13  1  0  0  0  0
  8 14  1  0  0  0  0
 14 15  1  0  0  0  0
  2 16  1  0  0  0  0
  3 17  1  0  0  0  0
 17 18  1  0  0  0  0
 17 19  2  0  0  0  0
 20 13  1  1  0  0  0
 20 21  1  0  0  0  0
 21 22  1  0  0  0  0
 22 23  1  0  0  0  0
 23 24  1  0  0  0  0
 24 25  1  0  0  0  0
 25 20  1  0  0  0  0
 24 26  1  1  0  0  0
 22 27  1  1  0  0  0
 23 28  1  6  0  0  0
 25 29  1  6  0  0  0
 27 30  1  0  0  0  0
  9 31  1  0  0  0  0
M  END
>  <cdx:fragmentId>
5

$$$$
