98478.cdx
  Mrv1902 05222410202D          

 28 30  0  0  0  0            999 V2000
    4.9137   -8.2912    0.0000 C   0  0  0  0  0  0  0  0  0  0  0  0
    4.9137   -9.1162    0.0000 C   0  0  0  0  0  0  0  0  0  0  0  0
    5.6281   -9.5287    0.0000 C   0  0  0  0  0  0  0  0  0  0  0  0
    6.3426   -9.1162    0.0000 C   0  0  0  0  0  0  0  0  0  0  0  0
    6.3426   -8.2912    0.0000 C   0  0  0  0  0  0  0  0  0  0  0  0
    5.6281   -7.8788    0.0000 C   0  0  0  0  0  0  0  0  0  0  0  0
    7.0571   -9.5287    0.0000 C   0  0  0  0  0  0  0  0  0  0  0  0
    7.7716   -9.1162    0.0000 C   0  0  0  0  0  0  0  0  0  0  0  0
    7.7716   -8.2912    0.0000 C   0  0  0  0  0  0  0  0  0  0  0  0
    7.0571   -7.8788    0.0000 O   0  0  0  0  0  0  0  0  0  0  0  0
    8.4860   -7.8788    0.0000 C   0  0  0  0  0  0  0  0  0  0  0  0
    9.2005   -8.2912    0.0000 C   0  0  0  0  0  0  0  0  0  0  0  0
    9.9150   -7.8788    0.0000 C   0  0  0  0  0  0  0  0  0  0  0  0
    9.9150   -7.0537    0.0000 C   0  0  0  0  0  0  0  0  0  0  0  0
    9.2005   -6.6413    0.0000 C   0  0  0  0  0  0  0  0  0  0  0  0
    8.4860   -7.0537    0.0000 C   0  0  0  0  0  0  0  0  0  0  0  0
    7.0571  -10.3537    0.0000 O   0  0  0  0  0  0  0  0  0  0  0  0
    5.6281  -10.3537    0.0000 O   0  0  0  0  0  0  0  0  0  0  0  0
    4.1992   -9.5287    0.0000 O   0  0  0  0  0  0  0  0  0  0  0  0
    3.4847   -9.1162    0.0000 C   0  0  0  0  0  0  0  0  0  0  0  0
    4.1992   -7.8788    0.0000 O   0  0  0  0  0  0  0  0  0  0  0  0
    4.1992   -7.0537    0.0000 C   0  0  0  0  0  0  0  0  0  0  0  0
    5.6281   -7.0537    0.0000 O   0  0  0  0  0  0  0  0  0  0  0  0
    6.3426   -6.6413    0.0000 C   0  0  0  0  0  0  0  0  0  0  0  0
    9.2005   -5.8163    0.0000 O   0  0  0  0  0  0  0  0  0  0  0  0
    8.4860   -5.4037    0.0000 C   0  0  0  0  0  0  0  0  0  0  0  0
   10.6294   -6.6413    0.0000 O   0  0  0  0  0  0  0  0  0  0  0  0
   10.6294   -5.8163    0.0000 C   0  0  0  0  0  0  0  0  0  0  0  0
  1  2  2  0  0  0  0
  2  3  1  0  0  0  0
  3  4  2  0  0  0  0
  4  5  1  0  0  0  0
  5  6  2  0  0  0  0
  6  1  1  0  0  0  0
  4  7  1  0  0  0  0
  7  8  1  0  0  0  0
  8  9  2  0  0  0  0
  9 10  1  0  0  0  0
 10  5  1  0  0  0  0
  9 11  1  0  0  0  0
 11 12  2  0  0  0  0
 12 13  1  0  0  0  0
 13 14  2  0  0  0  0
 14 15  1  0  0  0  0
 15 16  2  0  0  0  0
 16 11  1  0  0  0  0
  7 17  2  0  0  0  0
  3 18  1  0  0  0  0
  2 19  1  0  0  0  0
 19 20  1  0  0  0  0
  1 21  1  0  0  0  0
 21 22  1  0  0  0  0
  6 23  1  0  0  0  0
 23 24  1  0  0  0  0
 15 25  1  0  0  0  0
 25 26  1  0  0  0  0
 14 27  1  0  0  0  0
 27 28  1  0  0  0  0
M  END
>  <cdx:fragmentId>
5

$$$$
