98471.cdx
  Mrv1902 05222410282D          

 58 63  0  0  0  0            999 V2000
   13.6656   -7.9745    0.0000 C   0  0  0  0  0  0  0  0  0  0  0  0
   13.6656   -8.7992    0.0000 C   0  0  0  0  0  0  0  0  0  0  0  0
   14.3799   -9.2116    0.0000 C   0  0  0  0  0  0  0  0  0  0  0  0
   15.0941   -8.7992    0.0000 C   0  0  0  0  0  0  0  0  0  0  0  0
   15.0941   -7.9745    0.0000 C   0  0  0  0  0  0  0  0  0  0  0  0
   14.3799   -7.5621    0.0000 C   0  0  0  0  0  0  0  0  0  0  0  0
   15.8084   -9.2116    0.0000 C   0  0  0  0  0  0  0  0  0  0  0  0
   16.5226   -8.7992    0.0000 C   0  0  0  0  0  0  0  0  0  0  0  0
   16.5226   -7.9745    0.0000 C   0  0  0  0  0  0  0  0  0  0  0  0
   15.8084   -7.5621    0.0000 O   0  0  0  0  0  0  0  0  0  0  0  0
   14.3799  -10.0363    0.0000 O   0  0  0  0  0  0  0  0  0  0  0  0
   15.8084  -10.0363    0.0000 O   0  0  0  0  0  0  0  0  0  0  0  0
   17.9511   -7.9745    0.0000 C   0  0  0  0  0  0  0  0  0  0  0  0
   17.2368   -7.5621    0.0000 C   0  0  0  0  0  0  0  0  0  0  0  0
   18.6653   -7.5621    0.0000 C   0  0  0  0  0  0  0  0  0  0  0  0
   18.6653   -6.7374    0.0000 C   0  0  0  0  0  0  0  0  0  0  0  0
   17.9511   -6.3250    0.0000 C   0  0  0  0  0  0  0  0  0  0  0  0
   17.2368   -6.7374    0.0000 C   0  0  0  0  0  0  0  0  0  0  0  0
   19.3796   -6.3250    0.0000 O   0  0  0  0  0  0  0  0  0  0  0  0
   12.9514   -7.5621    0.0000 O   0  0  0  0  0  0  0  0  0  0  0  0
   12.9514   -9.2116    0.0000 C   0  0  2  0  0  0  0  0  0  0  0  0
   12.2371   -8.7992    0.0000 O   0  0  0  0  0  0  0  0  0  0  0  0
   11.5229   -9.2116    0.0000 C   0  0  1  0  0  0  0  0  0  0  0  0
   11.5229  -10.0363    0.0000 C   0  0  2  0  0  0  0  0  0  0  0  0
   12.2371  -10.4487    0.0000 C   0  0  1  0  0  0  0  0  0  0  0  0
   12.9514  -10.0363    0.0000 C   0  0  1  0  0  0  0  0  0  0  0  0
   10.8086   -8.7992    0.0000 C   0  0  0  0  0  0  0  0  0  0  0  0
   12.2371  -11.2734    0.0000 O   0  0  0  0  0  0  0  0  0  0  0  0
   10.8086  -10.4487    0.0000 O   0  0  0  0  0  0  0  0  0  0  0  0
   13.6656  -10.4487    0.0000 O   0  0  0  0  0  0  0  0  0  0  0  0
   10.0942   -9.2117    0.0000 O   0  0  0  0  0  0  0  0  0  0  0  0
   19.3796   -7.9745    0.0000 O   0  0  0  0  0  0  0  0  0  0  0  0
   20.0941   -7.5620    0.0000 C   0  0  0  0  0  0  0  0  0  0  0  0
   13.6656  -11.2737    0.0000 C   0  0  2  0  0  0  0  0  0  0  0  0
   12.9511  -11.6862    0.0000 O   0  0  0  0  0  0  0  0  0  0  0  0
   12.9511  -12.5112    0.0000 C   0  0  1  0  0  0  0  0  0  0  0  0
   13.6656  -12.9237    0.0000 C   0  0  2  0  0  0  0  0  0  0  0  0
   14.3801  -12.5112    0.0000 C   0  0  1  0  0  0  0  0  0  0  0  0
   14.3801  -11.6862    0.0000 C   0  0  1  0  0  0  0  0  0  0  0  0
   12.2367  -12.9237    0.0000 C   0  0  0  0  0  0  0  0  0  0  0  0
   15.0946  -12.9237    0.0000 O   0  0  0  0  0  0  0  0  0  0  0  0
   15.0946  -11.2737    0.0000 O   0  0  0  0  0  0  0  0  0  0  0  0
   13.6656  -13.7487    0.0000 O   0  0  0  0  0  0  0  0  0  0  0  0
   12.9514   -8.3869    0.0000 H   0  0  0  0  0  0  0  0  0  0  0  0
   11.5222  -12.5112    0.0000 O   0  0  0  0  0  0  0  0  0  0  0  0
   10.8077  -12.9237    0.0000 C   0  0  0  0  0  0  0  0  0  0  0  0
   10.0933  -12.5112    0.0000 C   0  0  0  0  0  0  0  0  0  0  0  0
   10.8077  -13.7487    0.0000 O   0  0  0  0  0  0  0  0  0  0  0  0
    9.3788  -12.9237    0.0000 C   0  0  0  0  0  0  0  0  0  0  0  0
    8.6643  -12.5112    0.0000 C   0  0  0  0  0  0  0  0  0  0  0  0
    8.6643  -11.6862    0.0000 C   0  0  0  0  0  0  0  0  0  0  0  0
    7.9498  -11.2737    0.0000 C   0  0  0  0  0  0  0  0  0  0  0  0
    7.2354  -11.6862    0.0000 C   0  0  0  0  0  0  0  0  0  0  0  0
    7.2354  -12.5112    0.0000 C   0  0  0  0  0  0  0  0  0  0  0  0
    7.9498  -12.9237    0.0000 C   0  0  0  0  0  0  0  0  0  0  0  0
    6.5209  -11.2737    0.0000 O   0  0  0  0  0  0  0  0  0  0  0  0
    6.5209  -12.9237    0.0000 O   0  0  0  0  0  0  0  0  0  0  0  0
    5.8064  -12.5112    0.0000 C   0  0  0  0  0  0  0  0  0  0  0  0
  1  2  2  0  0  0  0
  2  3  1  0  0  0  0
  3  4  2  0  0  0  0
  4  5  1  0  0  0  0
  5  6  2  0  0  0  0
  6  1  1  0  0  0  0
  4  7  1  0  0  0  0
  7  8  1  0  0  0  0
  8  9  2  0  0  0  0
  9 10  1  0  0  0  0
 10  5  1  0  0  0  0
  3 11  1  0  0  0  0
 12  7  2  0  0  0  0
 13 14  2  0  0  0  0
 14  9  1  0  0  0  0
 13 15  1  0  0  0  0
 15 16  2  0  0  0  0
 16 17  1  0  0  0  0
 17 18  2  0  0  0  0
 18 14  1  0  0  0  0
 16 19  1  0  0  0  0
  1 20  1  0  0  0  0
  2 21  1  0  0  0  0
 21 22  1  0  0  0  0
 22 23  1  0  0  0  0
 23 24  1  0  0  0  0
 24 25  1  0  0  0  0
 25 26  1  0  0  0  0
 26 21  1  0  0  0  0
 23 27  1  1  0  0  0
 25 28  1  1  0  0  0
 24 29  1  6  0  0  0
 26 30  1  6  0  0  0
 27 31  1  0  0  0  0
 15 32  1  0  0  0  0
 32 33  1  0  0  0  0
 34 30  1  1  0  0  0
 34 35  1  0  0  0  0
 35 36  1  0  0  0  0
 36 37  1  0  0  0  0
 37 38  1  0  0  0  0
 38 39  1  0  0  0  0
 39 34  1  0  0  0  0
 36 40  1  1  0  0  0
 38 41  1  1  0  0  0
 39 42  1  6  0  0  0
 37 43  1  6  0  0  0
 21 44  1  6  0  0  0
 40 45  1  0  0  0  0
 45 46  1  0  0  0  0
 46 47  1  0  0  0  0
 46 48  2  0  0  0  0
 47 49  2  0  0  0  0
 49 50  1  0  0  0  0
 50 51  2  0  0  0  0
 51 52  1  0  0  0  0
 52 53  2  0  0  0  0
 53 54  1  0  0  0  0
 54 55  2  0  0  0  0
 55 50  1  0  0  0  0
 53 56  1  0  0  0  0
 54 57  1  0  0  0  0
 57 58  1  0  0  0  0
M  END
>  <cdx:fragmentId>
5

$$$$
