98474.cdx
  Mrv1902 05222410262D          

 39 43  0  0  0  0            999 V2000
   10.8607  -10.2988    0.0000 O   0  0  0  0  0  0  0  0  0  0  0  0
    9.4318  -11.1237    0.0000 O   0  0  0  0  0  0  0  0  0  0  0  0
   11.6614   -8.2317    0.0000 H   0  0  0  0  0  0  0  0  0  0  0  0
   11.6614   -5.7658    0.0000 H   0  0  0  0  0  0  0  0  0  0  0  0
   12.6148   -5.5467    0.0000 O   0  0  0  0  0  0  0  0  0  0  0  0
    2.2871  -10.2987    0.0000 O   0  0  0  0  0  0  0  0  0  0  0  0
   13.0743   -8.9037    0.0000 O   0  0  0  0  0  0  0  0  0  0  0  0
   12.3598   -8.4912    0.0000 C   0  0  0  0  0  0  0  0  0  0  0  0
   13.2573   -7.7132    0.0000 O   0  0  0  0  0  0  0  0  0  0  0  0
   12.3598   -7.6662    0.0000 C   0  0  2  0  0  0  0  0  0  0  0  0
   12.8448   -6.9988    0.0000 C   0  0  2  0  0  0  0  0  0  0  0  0
   12.3598   -6.3313    0.0000 C   0  0  2  0  0  0  0  0  0  0  0  0
    3.7160   -8.6487    0.0000 C   0  0  0  0  0  0  0  0  0  0  0  0
    3.0016   -9.0613    0.0000 C   0  0  0  0  0  0  0  0  0  0  0  0
    3.0016   -9.8862    0.0000 C   0  0  0  0  0  0  0  0  0  0  0  0
    3.7160  -10.2987    0.0000 C   0  0  0  0  0  0  0  0  0  0  0  0
    4.4305   -9.0613    0.0000 C   0  0  0  0  0  0  0  0  0  0  0  0
    4.4305   -9.8862    0.0000 C   0  0  0  0  0  0  0  0  0  0  0  0
    5.1450   -8.6487    0.0000 C   0  0  0  0  0  0  0  0  0  0  0  0
    5.8594   -9.0613    0.0000 C   0  0  0  0  0  0  0  0  0  0  0  0
    6.5739   -7.8237    0.0000 O   0  0  0  0  0  0  0  0  0  0  0  0
    6.5739   -8.6487    0.0000 C   0  0  0  0  0  0  0  0  0  0  0  0
    8.0029   -8.6487    0.0000 C   0  0  0  0  0  0  0  0  0  0  0  0
    7.2884   -9.0613    0.0000 O   0  0  0  0  0  0  0  0  0  0  0  0
    8.0029  -10.2988    0.0000 O   0  0  0  0  0  0  0  0  0  0  0  0
    8.7173   -9.0613    0.0000 C   0  0  2  0  0  0  0  0  0  0  0  0
    8.7173   -9.8863    0.0000 C   0  0  2  0  0  0  0  0  0  0  0  0
    9.4318  -10.2987    0.0000 C   0  0  1  0  0  0  0  0  0  0  0  0
   10.1463   -9.8863    0.0000 C   0  0  2  0  0  0  0  0  0  0  0  0
    9.4318   -8.6487    0.0000 O   0  0  0  0  0  0  0  0  0  0  0  0
   10.1463   -9.0613    0.0000 C   0  0  1  0  0  0  0  0  0  0  0  0
   10.8607   -8.6487    0.0000 O   0  0  0  0  0  0  0  0  0  0  0  0
   10.8607   -6.1737    0.0000 C   0  0  0  0  0  0  0  0  0  0  0  0
   10.1463   -6.5863    0.0000 C   0  0  0  0  0  0  0  0  0  0  0  0
   10.1463   -7.4112    0.0000 O   0  0  0  0  0  0  0  0  0  0  0  0
   10.8607   -7.8237    0.0000 C   0  0  2  0  0  0  0  0  0  0  0  0
   11.5752   -7.4112    0.0000 C   0  0  1  0  0  0  0  0  0  0  0  0
   11.5752   -6.5863    0.0000 C   0  0  2  0  0  0  0  0  0  0  0  0
   13.4281   -6.4154    0.0000 H   0  0  0  0  0  0  0  0  0  0  0  0
 29  1  1  6  0  0  0
 28  2  1  1  0  0  0
 37  3  1  6  0  0  0
 38  4  1  6  0  0  0
 12  5  1  6  0  0  0
 15  6  1  0  0  0  0
  8  7  1  0  0  0  0
 10  8  1  1  0  0  0
 10  9  1  0  0  0  0
 11  9  1  0  0  0  0
 10 37  1  0  0  0  0
 11 10  1  0  0  0  0
 12 11  1  0  0  0  0
 38 12  1  0  0  0  0
 13 17  1  0  0  0  0
 14 13  2  0  0  0  0
 15 14  1  0  0  0  0
 16 15  2  0  0  0  0
 18 16  1  0  0  0  0
 17 19  1  0  0  0  0
 18 17  2  0  0  0  0
 20 19  2  0  0  0  0
 22 20  1  0  0  0  0
 22 21  2  0  0  0  0
 24 22  1  0  0  0  0
 26 23  1  1  0  0  0
 24 23  1  0  0  0  0
 27 25  1  6  0  0  0
 26 30  1  0  0  0  0
 27 26  1  0  0  0  0
 28 27  1  0  0  0  0
 29 28  1  0  0  0  0
 31 29  1  0  0  0  0
 31 30  1  0  0  0  0
 31 32  1  1  0  0  0
 36 32  1  6  0  0  0
 33 38  1  0  0  0  0
 34 33  1  0  0  0  0
 35 34  1  0  0  0  0
 36 35  1  0  0  0  0
 37 36  1  0  0  0  0
 38 37  1  0  0  0  0
 11 39  1  1  0  0  0
M  END
>  <cdx:fragmentId>
5

$$$$
