98488.cdx
  Mrv1902 05222410272D          

 43 45  0  0  0  0            999 V2000
    7.9044   -4.6561    0.0000 C   0  0  0  0  0  0  0  0  0  0  0  0
    8.3835   -3.9845    0.0000 C   0  0  0  0  0  0  0  0  0  0  0  0
    9.2047   -4.0636    0.0000 C   0  0  0  0  0  0  0  0  0  0  0  0
    8.2464   -5.4068    0.0000 O   0  0  0  0  0  0  0  0  0  0  0  0
    7.0832   -4.5769    0.0000 O   0  0  0  0  0  0  0  0  0  0  0  0
    9.6839   -3.3920    0.0000 C   0  0  0  0  0  0  0  0  0  0  0  0
    9.3418   -2.6413    0.0000 C   0  0  0  0  0  0  0  0  0  0  0  0
    9.8210   -1.9697    0.0000 C   0  0  0  0  0  0  0  0  0  0  0  0
   10.6422   -2.0488    0.0000 C   0  0  0  0  0  0  0  0  0  0  0  0
   10.9842   -2.7996    0.0000 C   0  0  0  0  0  0  0  0  0  0  0  0
   10.5051   -3.4712    0.0000 C   0  0  0  0  0  0  0  0  0  0  0  0
   11.1213   -1.3772    0.0000 O   0  0  0  0  0  0  0  0  0  0  0  0
    6.2025   -6.5216    0.0000 O   0  0  0  0  0  0  0  0  0  0  0  0
    6.8658   -6.0309    0.0000 C   0  0  1  0  0  0  0  0  0  0  0  0
    6.6041   -5.2485    0.0000 C   0  0  2  0  0  0  0  0  0  0  0  0
    5.7791   -5.2557    0.0000 C   0  0  1  0  0  0  0  0  0  0  0  0
    5.5309   -6.0425    0.0000 C   0  0  1  0  0  0  0  0  0  0  0  0
    4.7485   -6.3042    0.0000 C   0  0  0  0  0  0  0  0  0  0  0  0
    4.1652   -5.7208    0.0000 O   0  0  0  0  0  0  0  0  0  0  0  0
    5.2884   -4.5924    0.0000 O   0  0  0  0  0  0  0  0  0  0  0  0
    7.6795   -5.8949    0.0000 C   0  0  0  0  0  0  0  0  0  0  0  0
    7.4491   -6.6143    0.0000 O   0  0  0  0  0  0  0  0  0  0  0  0
    7.4491   -7.4393    0.0000 C   0  0  1  0  0  0  0  0  0  0  0  0
    6.7347   -7.8518    0.0000 O   0  0  0  0  0  0  0  0  0  0  0  0
    6.7347   -8.6768    0.0000 C   0  0  1  0  0  0  0  0  0  0  0  0
    7.4491   -9.0893    0.0000 C   0  0  2  0  0  0  0  0  0  0  0  0
    8.1636   -8.6768    0.0000 C   0  0  1  0  0  0  0  0  0  0  0  0
    8.1636   -7.8518    0.0000 C   0  0  1  0  0  0  0  0  0  0  0  0
    8.8781   -7.4393    0.0000 O   0  0  0  0  0  0  0  0  0  0  0  0
    7.4491   -9.9143    0.0000 O   0  0  0  0  0  0  0  0  0  0  0  0
    4.5912   -9.9143    0.0000 C   0  0  0  0  0  0  0  0  0  0  0  0
    8.2042   -6.5315    0.0000 O   0  0  0  0  0  0  0  0  0  0  0  0
    3.8768   -8.6768    0.0000 O   0  0  0  0  0  0  0  0  0  0  0  0
    4.5912   -9.0893    0.0000 C   0  0  0  0  0  0  0  0  0  0  0  0
    5.3057   -8.6768    0.0000 O   0  0  0  0  0  0  0  0  0  0  0  0
    6.0202   -9.0893    0.0000 C   0  0  0  0  0  0  0  0  0  0  0  0
    8.1636  -10.3268    0.0000 O   0  0  0  0  0  0  0  0  0  0  0  0
    9.5925  -10.3268    0.0000 C   0  0  0  0  0  0  0  0  0  0  0  0
    8.8781   -9.9143    0.0000 C   0  0  0  0  0  0  0  0  0  0  0  0
    8.8781   -9.0893    0.0000 O   0  0  0  0  0  0  0  0  0  0  0  0
    5.6175   -3.8359    0.0000 C   0  0  0  0  0  0  0  0  0  0  0  0
    5.1268   -3.1727    0.0000 O   0  0  0  0  0  0  0  0  0  0  0  0
    6.4372   -3.7426    0.0000 C   0  0  0  0  0  0  0  0  0  0  0  0
  1  2  1  0  0  0  0
  2  3  2  0  0  0  0
  1  4  2  0  0  0  0
  1  5  1  0  0  0  0
  6  7  1  0  0  0  0
  7  8  2  0  0  0  0
  8  9  1  0  0  0  0
  9 10  2  0  0  0  0
 10 11  1  0  0  0  0
  6 11  2  0  0  0  0
  9 12  1  0  0  0  0
  3  6  1  0  0  0  0
 13 14  1  0  0  0  0
 14 15  1  0  0  0  0
 15 16  1  0  0  0  0
 16 17  1  0  0  0  0
 13 17  1  0  0  0  0
 18 19  1  0  0  0  0
 17 18  1  6  0  0  0
 16 20  1  1  0  0  0
 15  5  1  6  0  0  0
 14 21  1  0  0  0  0
 14 22  1  6  0  0  0
 23 22  1  6  0  0  0
 23 24  1  0  0  0  0
 24 25  1  0  0  0  0
 25 26  1  0  0  0  0
 26 27  1  0  0  0  0
 27 28  1  0  0  0  0
 28 23  1  0  0  0  0
 34 31  1  0  0  0  0
 25 36  1  1  0  0  0
 39 37  2  0  0  0  0
 27 40  1  1  0  0  0
 28 29  1  6  0  0  0
 26 30  1  6  0  0  0
 34 33  2  0  0  0  0
 21 32  1  0  0  0  0
 35 34  1  0  0  0  0
 36 35  1  0  0  0  0
 39 38  1  0  0  0  0
 40 39  1  0  0  0  0
 20 41  1  0  0  0  0
 41 42  2  0  0  0  0
 41 43  1  0  0  0  0
M  END
>  <cdx:fragmentId>
204591

$$$$
