98485.cdx
  Mrv1902 05222410192D          

 49 51  0  0  0  0            999 V2000
    7.8219   -4.4636    0.0000 C   0  0  0  0  0  0  0  0  0  0  0  0
    8.3010   -3.7920    0.0000 C   0  0  0  0  0  0  0  0  0  0  0  0
    9.1222   -3.8711    0.0000 C   0  0  0  0  0  0  0  0  0  0  0  0
    8.1639   -5.2143    0.0000 O   0  0  0  0  0  0  0  0  0  0  0  0
    7.0007   -4.3844    0.0000 O   0  0  0  0  0  0  0  0  0  0  0  0
    9.6014   -3.1995    0.0000 C   0  0  0  0  0  0  0  0  0  0  0  0
    9.2593   -2.4488    0.0000 C   0  0  0  0  0  0  0  0  0  0  0  0
    9.7385   -1.7772    0.0000 C   0  0  0  0  0  0  0  0  0  0  0  0
   10.5597   -1.8563    0.0000 C   0  0  0  0  0  0  0  0  0  0  0  0
   10.9017   -2.6071    0.0000 C   0  0  0  0  0  0  0  0  0  0  0  0
   10.4226   -3.2787    0.0000 C   0  0  0  0  0  0  0  0  0  0  0  0
   11.0388   -1.1847    0.0000 O   0  0  0  0  0  0  0  0  0  0  0  0
    6.1200   -6.3291    0.0000 O   0  0  0  0  0  0  0  0  0  0  0  0
    6.7833   -5.8384    0.0000 C   0  0  1  0  0  0  0  0  0  0  0  0
    6.5216   -5.0560    0.0000 C   0  0  2  0  0  0  0  0  0  0  0  0
    5.6966   -5.0632    0.0000 C   0  0  1  0  0  0  0  0  0  0  0  0
    5.4484   -5.8500    0.0000 C   0  0  1  0  0  0  0  0  0  0  0  0
    4.6660   -6.1117    0.0000 C   0  0  0  0  0  0  0  0  0  0  0  0
    4.0827   -5.5283    0.0000 O   0  0  0  0  0  0  0  0  0  0  0  0
    5.2059   -4.3999    0.0000 O   0  0  0  0  0  0  0  0  0  0  0  0
    7.5970   -5.7024    0.0000 C   0  0  0  0  0  0  0  0  0  0  0  0
    7.3666   -6.4218    0.0000 O   0  0  0  0  0  0  0  0  0  0  0  0
    7.3666   -7.2468    0.0000 C   0  0  1  0  0  0  0  0  0  0  0  0
    6.6522   -7.6593    0.0000 O   0  0  0  0  0  0  0  0  0  0  0  0
    6.6522   -8.4843    0.0000 C   0  0  1  0  0  0  0  0  0  0  0  0
    7.3666   -8.8968    0.0000 C   0  0  2  0  0  0  0  0  0  0  0  0
    8.0811   -8.4843    0.0000 C   0  0  1  0  0  0  0  0  0  0  0  0
    8.0811   -7.6593    0.0000 C   0  0  1  0  0  0  0  0  0  0  0  0
    5.9377   -8.8968    0.0000 C   0  0  0  0  0  0  0  0  0  0  0  0
    8.7956   -8.8968    0.0000 O   0  0  0  0  0  0  0  0  0  0  0  0
    8.7956   -7.2468    0.0000 O   0  0  0  0  0  0  0  0  0  0  0  0
    7.3666   -9.7218    0.0000 O   0  0  0  0  0  0  0  0  0  0  0  0
    8.1217   -6.3390    0.0000 O   0  0  0  0  0  0  0  0  0  0  0  0
    5.5350   -3.6434    0.0000 C   0  0  0  0  0  0  0  0  0  0  0  0
    5.0443   -2.9802    0.0000 O   0  0  0  0  0  0  0  0  0  0  0  0
    6.3547   -3.5501    0.0000 C   0  0  0  0  0  0  0  0  0  0  0  0
    8.7956   -9.7218    0.0000 C   0  0  0  0  0  0  0  0  0  0  0  0
    8.0811  -10.1343    0.0000 O   0  0  0  0  0  0  0  0  0  0  0  0
    9.5100  -10.1343    0.0000 C   0  0  0  0  0  0  0  0  0  0  0  0
    5.2232   -8.4843    0.0000 O   0  0  0  0  0  0  0  0  0  0  0  0
    4.5087   -8.8968    0.0000 C   0  0  0  0  0  0  0  0  0  0  0  0
    3.7943   -8.4843    0.0000 C   0  0  0  0  0  0  0  0  0  0  0  0
    4.5087   -9.7218    0.0000 O   0  0  0  0  0  0  0  0  0  0  0  0
    8.9354   -6.2029    0.0000 C   0  0  0  0  0  0  0  0  0  0  0  0
    9.4601   -6.8395    0.0000 C   0  0  0  0  0  0  0  0  0  0  0  0
    9.2244   -5.4302    0.0000 O   0  0  0  0  0  0  0  0  0  0  0  0
    6.6522  -10.1343    0.0000 C   0  0  0  0  0  0  0  0  0  0  0  0
    5.9377   -9.7218    0.0000 C   0  0  0  0  0  0  0  0  0  0  0  0
    6.6522  -10.9593    0.0000 O   0  0  0  0  0  0  0  0  0  0  0  0
  1  2  1  0  0  0  0
  2  3  2  0  0  0  0
  1  4  2  0  0  0  0
  1  5  1  0  0  0  0
  6  7  1  0  0  0  0
  7  8  2  0  0  0  0
  8  9  1  0  0  0  0
  9 10  2  0  0  0  0
 10 11  1  0  0  0  0
  6 11  2  0  0  0  0
  9 12  1  0  0  0  0
  3  6  1  0  0  0  0
 13 14  1  0  0  0  0
 14 15  1  0  0  0  0
 15 16  1  0  0  0  0
 16 17  1  0  0  0  0
 13 17  1  0  0  0  0
 18 19  1  0  0  0  0
 17 18  1  6  0  0  0
 16 20  1  1  0  0  0
 15  5  1  6  0  0  0
 14 21  1  0  0  0  0
 14 22  1  6  0  0  0
 23 22  1  6  0  0  0
 23 24  1  0  0  0  0
 24 25  1  0  0  0  0
 25 26  1  0  0  0  0
 26 27  1  0  0  0  0
 27 28  1  0  0  0  0
 28 23  1  0  0  0  0
 25 29  1  1  0  0  0
 27 30  1  1  0  0  0
 28 31  1  6  0  0  0
 26 32  1  6  0  0  0
 21 33  1  0  0  0  0
 20 34  1  0  0  0  0
 34 35  2  0  0  0  0
 34 36  1  0  0  0  0
 30 37  1  0  0  0  0
 37 38  2  0  0  0  0
 37 39  1  0  0  0  0
 29 40  1  0  0  0  0
 40 41  1  0  0  0  0
 41 42  1  0  0  0  0
 41 43  2  0  0  0  0
 33 44  1  0  0  0  0
 44 45  1  0  0  0  0
 44 46  2  0  0  0  0
 32 47  1  0  0  0  0
 47 48  1  0  0  0  0
 47 49  2  0  0  0  0
M  END
>  <cdx:fragmentId>
204591

$$$$
