98483.cdx
  Mrv1902 05222410182D          

 37 41  0  0  0  0            999 V2000
    9.0982   -7.7639    0.0000 C   0  0  1  0  0  0  0  0  0  0  0  0
    9.8127   -8.1764    0.0000 C   0  0  1  0  0  0  0  0  0  0  0  0
    9.8127   -9.0014    0.0000 C   0  0  0  0  0  0  0  0  0  0  0  0
    9.0982   -9.4139    0.0000 C   0  0  0  0  0  0  0  0  0  0  0  0
    8.3838   -9.0014    0.0000 C   0  0  1  0  0  0  0  0  0  0  0  0
    7.6693   -9.4139    0.0000 C   0  0  2  0  0  0  0  0  0  0  0  0
    7.6693  -10.2389    0.0000 C   0  0  0  0  0  0  0  0  0  0  0  0
    6.9548  -10.6514    0.0000 C   0  0  0  0  0  0  0  0  0  0  0  0
    6.2403  -10.2389    0.0000 C   0  0  1  0  0  0  0  0  0  0  0  0
    5.5259  -10.6514    0.0000 C   0  0  0  0  0  0  0  0  0  0  0  0
    4.8114  -10.2389    0.0000 C   0  0  0  0  0  0  0  0  0  0  0  0
    4.8114   -9.4139    0.0000 C   0  0  1  0  0  0  0  0  0  0  0  0
    5.5259   -9.0014    0.0000 C   0  0  0  0  0  0  0  0  0  0  0  0
    6.2403   -9.4139    0.0000 C   0  0  2  0  0  0  0  0  0  0  0  0
    6.9548   -9.0014    0.0000 C   0  0  1  0  0  0  0  0  0  0  0  0
    6.9548   -8.1764    0.0000 C   0  0  0  0  0  0  0  0  0  0  0  0
    7.6693   -7.7639    0.0000 C   0  0  0  0  0  0  0  0  0  0  0  0
    8.3838   -8.1764    0.0000 C   0  0  2  0  0  0  0  0  0  0  0  0
   10.4258   -7.6244    0.0000 C   0  0  0  0  0  0  0  0  0  0  0  0
   10.0902   -6.8707    0.0000 C   0  0  0  0  0  0  0  0  0  0  0  0
    9.2697   -6.9570    0.0000 C   0  0  1  0  0  0  0  0  0  0  0  0
    8.9727   -5.5593    0.0000 C   0  0  0  0  0  0  0  0  0  0  0  0
    8.7177   -6.3439    0.0000 C   0  0  0  0  0  0  0  0  0  0  0  0
    7.9107   -6.5154    0.0000 C   0  0  0  0  0  0  0  0  0  0  0  0
    6.2403   -8.5889    0.0000 C   0  0  0  0  0  0  0  0  0  0  0  0
    5.9384  -11.3659    0.0000 C   0  0  0  0  0  0  0  0  0  0  0  0
    5.1134  -11.3659    0.0000 C   0  0  0  0  0  0  0  0  0  0  0  0
    7.6693   -8.5889    0.0000 C   0  0  0  0  0  0  0  0  0  0  0  0
    8.3838   -9.8264    0.0000 C   0  0  0  0  0  0  0  0  0  0  0  0
   10.5664   -8.5120    0.0000 C   0  0  0  0  0  0  0  0  0  0  0  0
    6.2403  -11.0639    0.0000 H   0  0  0  0  0  0  0  0  0  0  0  0
    6.9548   -9.8264    0.0000 H   0  0  0  0  0  0  0  0  0  0  0  0
    8.3838   -7.3514    0.0000 H   0  0  0  0  0  0  0  0  0  0  0  0
    9.0982   -8.5889    0.0000 H   0  0  0  0  0  0  0  0  0  0  0  0
    4.0969   -9.0014    0.0000 O   0  0  0  0  0  0  0  0  0  0  0  0
    3.9864  -10.2389    0.0000 O   0  0  0  0  0  0  0  0  0  0  0  0
    4.5979  -11.0358    0.0000 O   0  0  0  0  0  0  0  0  0  0  0  0
  1  2  1  0  0  0  0
  2  3  1  0  0  0  0
  3  4  1  0  0  0  0
  4  5  1  0  0  0  0
  5  6  1  0  0  0  0
  6  7  1  0  0  0  0
  7  8  1  0  0  0  0
  8  9  1  0  0  0  0
  9 10  1  0  0  0  0
 10 11  1  0  0  0  0
 11 12  1  0  0  0  0
 12 13  1  0  0  0  0
 13 14  1  0  0  0  0
  9 14  1  0  0  0  0
 14 15  1  0  0  0  0
  6 15  1  0  0  0  0
 15 16  1  0  0  0  0
 16 17  1  0  0  0  0
 17 18  1  0  0  0  0
  5 18  1  0  0  0  0
  1 18  1  0  0  0  0
 19 20  1  0  0  0  0
 20 21  1  0  0  0  0
 21  1  1  0  0  0  0
 19  2  1  0  0  0  0
 22 23  2  0  0  0  0
 23 24  1  0  0  0  0
 21 23  1  6  0  0  0
 14 25  1  1  0  0  0
 10 26  1  0  0  0  0
 10 27  1  0  0  0  0
  6 28  1  1  0  0  0
  5 29  1  6  0  0  0
  2 30  1  1  0  0  0
  9 31  1  6  0  0  0
 15 32  1  6  0  0  0
 18 33  1  1  0  0  0
  1 34  1  6  0  0  0
 12 35  1  6  0  0  0
 11 36  1  1  0  0  0
 11 37  1  1  0  0  0
M  END
>  <cdx:fragmentId>
5

$$$$
