98484.cdx
  Mrv1902 05222410202D          

 97107  0  0  0  0            999 V2000
   17.2070   -5.1150    0.0000 C   0  0  0  0  0  0  0  0  0  0  0  0
   17.9215   -4.7025    0.0000 C   0  0  0  0  0  0  0  0  0  0  0  0
   18.6360   -5.1150    0.0000 C   0  0  0  0  0  0  0  0  0  0  0  0
   18.6360   -5.9400    0.0000 C   0  0  0  0  0  0  0  0  0  0  0  0
   17.9215   -6.3525    0.0000 C   0  0  2  0  0  0  0  0  0  0  0  0
   17.9215   -7.1775    0.0000 C   0  0  0  0  0  0  0  0  0  0  0  0
   17.2070   -7.5900    0.0000 C   0  0  0  0  0  0  0  0  0  0  0  0
   16.4925   -7.1775    0.0000 C   0  0  1  0  0  0  0  0  0  0  0  0
   15.7781   -7.5900    0.0000 C   0  0  2  0  0  0  0  0  0  0  0  0
   15.7781   -8.4150    0.0000 C   0  0  0  0  0  0  0  0  0  0  0  0
   15.0636   -8.8275    0.0000 C   0  0  0  0  0  0  0  0  0  0  0  0
   14.3491   -8.4150    0.0000 C   0  0  1  0  0  0  0  0  0  0  0  0
   13.6347   -8.8275    0.0000 C   0  0  1  0  0  0  0  0  0  0  0  0
   12.9202   -8.4150    0.0000 C   0  0  2  0  0  0  0  0  0  0  0  0
   12.9202   -7.5900    0.0000 C   0  0  0  0  0  0  0  0  0  0  0  0
   13.6347   -7.1775    0.0000 C   0  0  0  0  0  0  0  0  0  0  0  0
   14.3491   -7.5900    0.0000 C   0  0  2  0  0  0  0  0  0  0  0  0
   15.0636   -7.1775    0.0000 C   0  0  1  0  0  0  0  0  0  0  0  0
   15.0636   -6.3525    0.0000 C   0  0  0  0  0  0  0  0  0  0  0  0
   15.7781   -5.9400    0.0000 C   0  0  0  0  0  0  0  0  0  0  0  0
   16.4925   -6.3525    0.0000 C   0  0  0  0  0  0  0  0  0  0  0  0
   17.2070   -5.9400    0.0000 C   0  0  2  0  0  0  0  0  0  0  0  0
   18.6360   -6.7650    0.0000 C   0  0  0  0  0  0  0  0  0  0  0  0
   18.6360   -7.5900    0.0000 O   0  0  0  0  0  0  0  0  0  0  0  0
   14.0472   -9.5419    0.0000 C   0  0  0  0  0  0  0  0  0  0  0  0
   13.2222   -9.5419    0.0000 C   0  0  0  0  0  0  0  0  0  0  0  0
   17.5090   -3.9880    0.0000 C   0  0  0  0  0  0  0  0  0  0  0  0
   18.3340   -3.9880    0.0000 C   0  0  0  0  0  0  0  0  0  0  0  0
   12.2057   -8.8275    0.0000 O   0  0  0  0  0  0  0  0  0  0  0  0
   11.4912   -7.5900    0.0000 O   0  0  0  0  0  0  0  0  0  0  0  0
   11.4912   -8.4150    0.0000 C   0  0  2  0  0  0  0  0  0  0  0  0
   10.7768   -8.8275    0.0000 C   0  0  1  0  0  0  0  0  0  0  0  0
   10.0623   -8.4150    0.0000 C   0  0  2  0  0  0  0  0  0  0  0  0
   10.0623   -7.5900    0.0000 C   0  0  1  0  0  0  0  0  0  0  0  0
   10.7768   -7.1775    0.0000 C   0  0  0  0  0  0  0  0  0  0  0  0
    9.3478   -7.1775    0.0000 O   0  0  0  0  0  0  0  0  0  0  0  0
    9.3478   -8.8275    0.0000 O   0  0  0  0  0  0  0  0  0  0  0  0
   10.7768   -9.6525    0.0000 O   0  0  0  0  0  0  0  0  0  0  0  0
    9.3478   -9.6525    0.0000 O   0  0  0  0  0  0  0  0  0  0  0  0
   10.0623  -10.0650    0.0000 C   0  0  2  0  0  0  0  0  0  0  0  0
   10.0623  -10.8900    0.0000 C   0  0  1  0  0  0  0  0  0  0  0  0
    9.3478  -11.3025    0.0000 C   0  0  1  0  0  0  0  0  0  0  0  0
    8.6334  -10.8900    0.0000 C   0  0  2  0  0  0  0  0  0  0  0  0
    8.6334  -10.0650    0.0000 C   0  0  2  0  0  0  0  0  0  0  0  0
    7.9189   -9.6525    0.0000 C   0  0  0  0  0  0  0  0  0  0  0  0
    7.9189  -11.3025    0.0000 O   0  0  0  0  0  0  0  0  0  0  0  0
   10.7768  -11.3025    0.0000 O   0  0  0  0  0  0  0  0  0  0  0  0
    6.4816  -13.7604    0.0000 O   0  0  0  0  0  0  0  0  0  0  0  0
   14.3491   -9.2400    0.0000 H   0  0  0  0  0  0  0  0  0  0  0  0
   17.2070   -6.7650    0.0000 H   0  0  0  0  0  0  0  0  0  0  0  0
   21.5009   -9.2347    0.0000 O   0  0  0  0  0  0  0  0  0  0  0  0
   20.7701  -10.4626    0.0000 O   0  0  0  0  0  0  0  0  0  0  0  0
   21.4900  -10.0596    0.0000 C   0  0  2  0  0  0  0  0  0  0  0  0
   22.1990  -10.4815    0.0000 C   0  0  1  0  0  0  0  0  0  0  0  0
   22.1880  -11.3065    0.0000 C   0  0  2  0  0  0  0  0  0  0  0  0
   21.4682  -11.7095    0.0000 C   0  0  1  0  0  0  0  0  0  0  0  0
   20.7592  -11.2876    0.0000 C   0  0  1  0  0  0  0  0  0  0  0  0
   20.0394  -11.6906    0.0000 C   0  0  0  0  0  0  0  0  0  0  0  0
   19.3249  -11.2781    0.0000 O   0  0  0  0  0  0  0  0  0  0  0  0
   22.8970  -11.7284    0.0000 O   0  0  0  0  0  0  0  0  0  0  0  0
   22.9188  -10.0785    0.0000 O   0  0  0  0  0  0  0  0  0  0  0  0
    9.3478  -13.7775    0.0000 O   0  0  0  0  0  0  0  0  0  0  0  0
    7.2044  -12.5400    0.0000 C   0  0  0  0  0  0  0  0  0  0  0  0
    7.2044  -13.3650    0.0000 C   0  0  2  0  0  0  0  0  0  0  0  0
    7.9189  -13.7775    0.0000 C   0  0  2  0  0  0  0  0  0  0  0  0
    8.6334  -13.3650    0.0000 C   0  0  2  0  0  0  0  0  0  0  0  0
    8.6334  -12.5400    0.0000 C   0  0  1  0  0  0  0  0  0  0  0  0
    7.9189  -12.1275    0.0000 O   0  0  0  0  0  0  0  0  0  0  0  0
    9.3478  -12.1275    0.0000 O   0  0  0  0  0  0  0  0  0  0  0  0
   21.4590  -14.1844    0.0000 O   0  0  0  0  0  0  0  0  0  0  0  0
   20.0309  -15.0109    0.0000 O   0  0  0  0  0  0  0  0  0  0  0  0
   18.6011  -14.1874    0.0000 O   0  0  0  0  0  0  0  0  0  0  0  0
   18.5994  -12.5374    0.0000 C   0  0  0  0  0  0  0  0  0  0  0  0
   19.3143  -12.9491    0.0000 C   0  0  1  0  0  0  0  0  0  0  0  0
   19.3151  -13.7741    0.0000 C   0  0  1  0  0  0  0  0  0  0  0  0
   20.0300  -14.1859    0.0000 C   0  0  2  0  0  0  0  0  0  0  0  0
   20.7441  -13.7727    0.0000 C   0  0  2  0  0  0  0  0  0  0  0  0
   20.7432  -12.9477    0.0000 C   0  0  1  0  0  0  0  0  0  0  0  0
   20.0283  -12.5359    0.0000 O   0  0  0  0  0  0  0  0  0  0  0  0
   21.4573  -12.5344    0.0000 O   0  0  0  0  0  0  0  0  0  0  0  0
   20.7855   -8.8240    0.0000 C   0  0  0  0  0  0  0  0  0  0  0  0
   20.7773   -5.5240    0.0000 O   0  0  0  0  0  0  0  0  0  0  0  0
   22.2083   -6.3454    0.0000 O   0  0  0  0  0  0  0  0  0  0  0  0
   22.2124   -7.9954    0.0000 O   0  0  0  0  0  0  0  0  0  0  0  0
   20.7834   -7.9990    0.0000 C   0  0  2  0  0  0  0  0  0  0  0  0
   21.4969   -7.5847    0.0000 C   0  0  2  0  0  0  0  0  0  0  0  0
   21.4948   -6.7597    0.0000 C   0  0  1  0  0  0  0  0  0  0  0  0
   20.7794   -6.3490    0.0000 C   0  0  2  0  0  0  0  0  0  0  0  0
   20.0659   -6.7632    0.0000 C   0  0  1  0  0  0  0  0  0  0  0  0
   20.0679   -7.5882    0.0000 O   0  0  0  0  0  0  0  0  0  0  0  0
   19.3504   -6.3525    0.0000 O   0  0  0  0  0  0  0  0  0  0  0  0
   14.3491   -6.7650    0.0000 C   0  0  0  0  0  0  0  0  0  0  0  0
   15.7781   -6.7650    0.0000 C   0  0  0  0  0  0  0  0  0  0  0  0
   16.4925   -8.0025    0.0000 C   0  0  0  0  0  0  0  0  0  0  0  0
   15.0636   -8.0025    0.0000 H   0  0  0  0  0  0  0  0  0  0  0  0
    7.9189  -14.6025    0.0000 O   0  0  0  0  0  0  0  0  0  0  0  0
   13.6347  -10.2564    0.0000 O   0  0  0  0  0  0  0  0  0  0  0  0
 89 91  1  1  0  0  0
 67 69  1  1  0  0  0
 66 62  1  6  0  0  0
 68 63  1  0  0  0  0
 64 63  1  0  0  0  0
 65 64  1  0  0  0  0
 85 81  1  1  0  0  0
 81 51  1  0  0  0  0
 78 80  1  1  0  0  0
 77 70  1  6  0  0  0
 76 71  1  6  0  0  0
 75 72  1  1  0  0  0
 74 73  1  6  0  0  0
 79 74  1  0  0  0  0
 75 74  1  0  0  0  0
 76 75  1  0  0  0  0
 77 76  1  0  0  0  0
 78 77  1  0  0  0  0
 79 78  1  0  0  0  0
 52 53  1  0  0  0  0
 88 82  1  6  0  0  0
 87 83  1  1  0  0  0
 86 84  1  6  0  0  0
 90 85  1  0  0  0  0
 86 85  1  0  0  0  0
 87 86  1  0  0  0  0
 88 87  1  0  0  0  0
  1  2  1  0  0  0  0
  2  3  1  0  0  0  0
  3  4  1  0  0  0  0
  4  5  1  0  0  0  0
  5  6  1  0  0  0  0
  6  7  1  0  0  0  0
  7  8  1  0  0  0  0
  8  9  1  0  0  0  0
  9 10  1  0  0  0  0
 10 11  1  0  0  0  0
 11 12  1  0  0  0  0
 12 13  1  0  0  0  0
 13 14  1  0  0  0  0
 14 15  1  0  0  0  0
 15 16  1  0  0  0  0
 16 17  1  0  0  0  0
 12 17  1  0  0  0  0
 17 18  1  0  0  0  0
  9 18  1  0  0  0  0
 18 19  1  0  0  0  0
 19 20  1  0  0  0  0
 20 21  2  0  0  0  0
  8 21  1  0  0  0  0
 21 22  1  0  0  0  0
  5 22  1  0  0  0  0
  1 22  1  0  0  0  0
 23 24  2  0  0  0  0
 23 91  1  0  0  0  0
  5 23  1  1  0  0  0
 13 25  1  0  0  0  0
 13 26  1  1  0  0  0
  2 27  1  0  0  0  0
  2 28  1  0  0  0  0
 30 31  1  0  0  0  0
 31 32  1  0  0  0  0
 32 33  1  0  0  0  0
 33 34  1  0  0  0  0
 34 35  1  0  0  0  0
 30 35  1  0  0  0  0
 34 36  1  6  0  0  0
 33 37  1  1  0  0  0
 39 40  1  0  0  0  0
 40 41  1  0  0  0  0
 41 42  1  0  0  0  0
 42 43  1  0  0  0  0
 43 44  1  0  0  0  0
 39 44  1  0  0  0  0
 44 45  1  6  0  0  0
 43 46  1  1  0  0  0
 41 47  1  6  0  0  0
 66 65  1  0  0  0  0
 67 66  1  0  0  0  0
 68 67  1  0  0  0  0
 42 69  1  6  0  0  0
 40 38  1  1  0  0  0
 32 38  1  6  0  0  0
 31 29  1  1  0  0  0
 14 29  1  1  0  0  0
 12 49  1  6  0  0  0
 22 50  1  1  0  0  0
 89 88  1  0  0  0  0
 90 89  1  0  0  0  0
 53 54  1  0  0  0  0
 54 55  1  0  0  0  0
 55 56  1  0  0  0  0
 56 57  1  0  0  0  0
 52 57  1  0  0  0  0
 56 80  1  6  0  0  0
 58 59  1  0  0  0  0
 57 58  1  1  0  0  0
 55 60  1  1  0  0  0
 54 61  1  6  0  0  0
 53 51  1  1  0  0  0
 17 92  1  1  0  0  0
  9 93  1  1  0  0  0
  8 94  1  6  0  0  0
 18 95  1  6  0  0  0
 65 96  1  6  0  0  0
 64 48  1  6  0  0  0
 25 97  1  0  0  0  0
M  END
>  <cdx:fragmentId>
181457

$$$$
