98494.cdx
  Mrv1902 05222410182D          

 79 87  0  0  0  0            999 V2000
    5.3387   -7.1004    0.0000 C   0  0  2  0  0  0  0  0  0  0  0  0
    5.3387   -7.6779    0.0000 C   0  0  1  0  0  0  0  0  0  0  0  0
    5.8388   -7.9666    0.0000 C   0  0  2  0  0  0  0  0  0  0  0  0
    6.3390   -7.6779    0.0000 C   0  0  1  0  0  0  0  0  0  0  0  0
    6.3390   -7.1004    0.0000 C   0  0  2  0  0  0  0  0  0  0  0  0
    5.8388   -6.8116    0.0000 C   0  0  0  0  0  0  0  0  0  0  0  0
    6.8391   -7.9666    0.0000 C   0  0  0  0  0  0  0  0  0  0  0  0
    7.3392   -7.6779    0.0000 C   0  0  0  0  0  0  0  0  0  0  0  0
    7.3392   -7.1004    0.0000 C   0  0  2  0  0  0  0  0  0  0  0  0
    6.8391   -6.8116    0.0000 C   0  0  2  0  0  0  0  0  0  0  0  0
    7.8394   -6.8116    0.0000 C   0  0  1  0  0  0  0  0  0  0  0  0
    7.8394   -6.2341    0.0000 C   0  0  0  0  0  0  0  0  0  0  0  0
    7.3392   -5.9454    0.0000 C   0  0  0  0  0  0  0  0  0  0  0  0
    6.8391   -6.2341    0.0000 C   0  0  0  0  0  0  0  0  0  0  0  0
    8.3395   -7.1004    0.0000 C   0  0  0  0  0  0  0  0  0  0  0  0
    8.8396   -6.8116    0.0000 C   0  0  0  0  0  0  0  0  0  0  0  0
    8.8396   -6.2341    0.0000 C   0  0  2  0  0  0  0  0  0  0  0  0
    8.3395   -5.9454    0.0000 C   0  0  1  0  0  0  0  0  0  0  0  0
    9.3398   -5.9454    0.0000 C   0  0  0  0  0  0  0  0  0  0  0  0
    9.3398   -5.3679    0.0000 C   0  0  0  0  0  0  0  0  0  0  0  0
    8.8396   -5.0791    0.0000 C   0  0  1  0  0  0  0  0  0  0  0  0
    8.3395   -5.3679    0.0000 C   0  0  0  0  0  0  0  0  0  0  0  0
    5.5501   -8.4668    0.0000 C   0  0  0  0  0  0  0  0  0  0  0  0
    5.9584   -8.8751    0.0000 H   0  0  0  0  0  0  0  0  0  0  0  0
    4.8386   -7.9666    0.0000 O   0  0  0  0  0  0  0  0  0  0  0  0
    6.1276   -8.4668    0.0000 C   0  0  0  0  0  0  0  0  0  0  0  0
    6.3390   -6.5229    0.0000 C   0  0  0  0  0  0  0  0  0  0  0  0
    7.3392   -6.5229    0.0000 C   0  0  0  0  0  0  0  0  0  0  0  0
    8.3395   -6.5229    0.0000 H   0  0  0  0  0  0  0  0  0  0  0  0
    9.3398   -6.5229    0.0000 C   0  0  0  0  0  0  0  0  0  0  0  0
    8.5509   -4.5790    0.0000 C   0  0  0  0  0  0  0  0  0  0  0  0
    4.8386   -6.8116    0.0000 H   0  0  0  0  0  0  0  0  0  0  0  0
    6.3390   -8.2554    0.0000 H   0  0  0  0  0  0  0  0  0  0  0  0
    6.8391   -7.3891    0.0000 H   0  0  0  0  0  0  0  0  0  0  0  0
    7.8394   -7.3891    0.0000 C   0  0  0  0  0  0  0  0  0  0  0  0
    9.1284   -4.5790    0.0000 C   0  0  0  0  0  0  0  0  0  0  0  0
    9.8399   -6.2341    0.0000 O   0  0  0  0  0  0  0  0  0  0  0  0
    9.3398   -7.1004    0.0000 O   0  0  0  0  0  0  0  0  0  0  0  0
    3.8185   -6.8108    0.0000 C   0  0  0  0  0  0  0  0  0  0  0  0
    3.3192   -7.1010    0.0000 C   0  0  1  0  0  0  0  0  0  0  0  0
    3.3209   -7.6785    0.0000 C   0  0  1  0  0  0  0  0  0  0  0  0
    3.8218   -7.9657    0.0000 C   0  0  2  0  0  0  0  0  0  0  0  0
    4.3211   -7.6755    0.0000 C   0  0  1  0  0  0  0  0  0  0  0  0
    4.3194   -7.0981    0.0000 O   0  0  0  0  0  0  0  0  0  0  0  0
    2.8182   -6.8137    0.0000 O   0  0  0  0  0  0  0  0  0  0  0  0
    2.8216   -7.9687    0.0000 O   0  0  0  0  0  0  0  0  0  0  0  0
    3.8235   -8.5432    0.0000 O   0  0  0  0  0  0  0  0  0  0  0  0
    3.3242   -8.8334    0.0000 C   0  0  2  0  0  0  0  0  0  0  0  0
    2.8232   -8.5462    0.0000 O   0  0  0  0  0  0  0  0  0  0  0  0
    2.3240   -8.8364    0.0000 C   0  0  2  0  0  0  0  0  0  0  0  0
    2.3256   -9.4139    0.0000 C   0  0  1  0  0  0  0  0  0  0  0  0
    2.8266   -9.7011    0.0000 C   0  0  2  0  0  0  0  0  0  0  0  0
    3.3259   -9.4109    0.0000 C   0  0  1  0  0  0  0  0  0  0  0  0
    2.8283  -10.2786    0.0000 O   0  0  0  0  0  0  0  0  0  0  0  0
    3.8269   -9.6982    0.0000 O   0  0  0  0  0  0  0  0  0  0  0  0
    1.8263   -9.7041    0.0000 O   0  0  0  0  0  0  0  0  0  0  0  0
   10.8416   -7.4048    0.0000 C   0  0  2  0  0  0  0  0  0  0  0  0
   11.3421   -7.1168    0.0000 C   0  0  2  0  0  0  0  0  0  0  0  0
   11.3429   -6.5393    0.0000 C   0  0  1  0  0  0  0  0  0  0  0  0
   10.8432   -6.2498    0.0000 C   0  0  2  0  0  0  0  0  0  0  0  0
   10.3426   -6.5379    0.0000 C   0  0  1  0  0  0  0  0  0  0  0  0
   10.3418   -7.1154    0.0000 O   0  0  0  0  0  0  0  0  0  0  0  0
   10.8408   -7.9823    0.0000 C   0  0  0  0  0  0  0  0  0  0  0  0
   11.8434   -6.2512    0.0000 O   0  0  0  0  0  0  0  0  0  0  0  0
   11.8418   -7.4062    0.0000 O   0  0  0  0  0  0  0  0  0  0  0  0
   10.8440   -5.6723    0.0000 O   0  0  0  0  0  0  0  0  0  0  0  0
   11.3405   -8.2718    0.0000 O   0  0  0  0  0  0  0  0  0  0  0  0
   10.8321   -9.7265    0.0000 C   0  0  2  0  0  0  0  0  0  0  0  0
   11.3316  -10.0162    0.0000 C   0  0  2  0  0  0  0  0  0  0  0  0
   11.8323   -9.7285    0.0000 C   0  0  1  0  0  0  0  0  0  0  0  0
   11.8335   -9.1510    0.0000 C   0  0  2  0  0  0  0  0  0  0  0  0
   11.3340   -8.8612    0.0000 C   0  0  1  0  0  0  0  0  0  0  0  0
   10.8332   -9.1490    0.0000 O   0  0  0  0  0  0  0  0  0  0  0  0
   10.3314  -10.0142    0.0000 C   0  0  0  0  0  0  0  0  0  0  0  0
   12.3319  -10.0183    0.0000 O   0  0  0  0  0  0  0  0  0  0  0  0
   11.3304  -10.5937    0.0000 O   0  0  0  0  0  0  0  0  0  0  0  0
   12.3342   -8.8633    0.0000 O   0  0  0  0  0  0  0  0  0  0  0  0
   10.3302  -10.5917    0.0000 O   0  0  0  0  0  0  0  0  0  0  0  0
    1.8230   -8.5491    0.0000 C   0  0  0  0  0  0  0  0  0  0  0  0
  1  2  1  0  0  0  0
  2  3  1  0  0  0  0
  3  4  1  0  0  0  0
  4  5  1  0  0  0  0
  5  6  1  0  0  0  0
  6  1  1  0  0  0  0
  4  7  1  0  0  0  0
  7  8  1  0  0  0  0
  8  9  1  0  0  0  0
  9 10  1  0  0  0  0
 10  5  1  0  0  0  0
  9 11  1  0  0  0  0
 11 12  1  0  0  0  0
 12 13  2  0  0  0  0
 13 14  1  0  0  0  0
 14 10  1  0  0  0  0
 11 15  1  0  0  0  0
 15 16  1  0  0  0  0
 16 17  1  0  0  0  0
 17 18  1  0  0  0  0
 18 12  1  0  0  0  0
 17 19  1  0  0  0  0
 19 20  1  0  0  0  0
 20 21  1  0  0  0  0
 21 22  1  0  0  0  0
 22 18  1  0  0  0  0
  3 23  1  6  0  0  0
 23 24  1  0  0  0  0
  2 25  1  1  0  0  0
  3 26  1  1  0  0  0
  5 27  1  1  0  0  0
  9 28  1  1  0  0  0
 18 29  1  1  0  0  0
 17 30  1  1  0  0  0
 21 31  1  1  0  0  0
  1 32  1  6  0  0  0
  4 33  1  6  0  0  0
 10 34  1  6  0  0  0
 11 35  1  6  0  0  0
 21 36  1  6  0  0  0
 30 37  1  0  0  0  0
 30 38  2  0  0  0  0
 39 40  1  0  0  0  0
 40 41  1  0  0  0  0
 41 42  1  0  0  0  0
 42 43  1  0  0  0  0
 43 44  1  0  0  0  0
 44 39  1  0  0  0  0
 40 45  1  1  0  0  0
 41 46  1  1  0  0  0
 42 47  1  6  0  0  0
 48 47  1  1  0  0  0
 48 49  1  0  0  0  0
 49 50  1  0  0  0  0
 50 51  1  0  0  0  0
 51 52  1  0  0  0  0
 52 53  1  0  0  0  0
 53 48  1  0  0  0  0
 52 54  1  6  0  0  0
 53 55  1  6  0  0  0
 51 56  1  1  0  0  0
 57 58  1  0  0  0  0
 58 59  1  0  0  0  0
 59 60  1  0  0  0  0
 60 61  1  0  0  0  0
 61 62  1  0  0  0  0
 62 57  1  0  0  0  0
 57 63  1  1  0  0  0
 59 64  1  1  0  0  0
 58 65  1  6  0  0  0
 60 66  1  6  0  0  0
 63 67  1  0  0  0  0
 68 69  1  0  0  0  0
 69 70  1  0  0  0  0
 70 71  1  0  0  0  0
 71 72  1  0  0  0  0
 72 73  1  0  0  0  0
 73 68  1  0  0  0  0
 68 74  1  1  0  0  0
 70 75  1  1  0  0  0
 69 76  1  6  0  0  0
 71 77  1  6  0  0  0
 74 78  1  0  0  0  0
 72 67  1  1  0  0  0
 50 79  1  6  0  0  0
 43 25  1  1  0  0  0
 61 37  1  1  0  0  0
M  END
>  <cdx:fragmentId>
5

$$$$
