98496.cdx
  Mrv1902 05222410182D          

 88 97  0  0  0  0            999 V2000
    5.3387   -7.1004    0.0000 C   0  0  2  0  0  0  0  0  0  0  0  0
    5.3387   -7.6779    0.0000 C   0  0  1  0  0  0  0  0  0  0  0  0
    5.8388   -7.9666    0.0000 C   0  0  2  0  0  0  0  0  0  0  0  0
    6.3390   -7.6779    0.0000 C   0  0  1  0  0  0  0  0  0  0  0  0
    6.3390   -7.1004    0.0000 C   0  0  2  0  0  0  0  0  0  0  0  0
    5.8388   -6.8116    0.0000 C   0  0  0  0  0  0  0  0  0  0  0  0
    6.8391   -7.9666    0.0000 C   0  0  0  0  0  0  0  0  0  0  0  0
    7.3392   -7.6779    0.0000 C   0  0  0  0  0  0  0  0  0  0  0  0
    7.3392   -7.1004    0.0000 C   0  0  2  0  0  0  0  0  0  0  0  0
    6.8391   -6.8116    0.0000 C   0  0  2  0  0  0  0  0  0  0  0  0
    7.8394   -6.8116    0.0000 C   0  0  1  0  0  0  0  0  0  0  0  0
    7.8394   -6.2341    0.0000 C   0  0  0  0  0  0  0  0  0  0  0  0
    7.3392   -5.9454    0.0000 C   0  0  0  0  0  0  0  0  0  0  0  0
    6.8391   -6.2341    0.0000 C   0  0  0  0  0  0  0  0  0  0  0  0
    8.3395   -7.1004    0.0000 C   0  0  0  0  0  0  0  0  0  0  0  0
    8.8396   -6.8116    0.0000 C   0  0  0  0  0  0  0  0  0  0  0  0
    8.8396   -6.2341    0.0000 C   0  0  2  0  0  0  0  0  0  0  0  0
    8.3395   -5.9454    0.0000 C   0  0  1  0  0  0  0  0  0  0  0  0
    9.3398   -5.9454    0.0000 C   0  0  0  0  0  0  0  0  0  0  0  0
    9.3398   -5.3679    0.0000 C   0  0  0  0  0  0  0  0  0  0  0  0
    8.8396   -5.0791    0.0000 C   0  0  0  0  0  0  0  0  0  0  0  0
    8.3395   -5.3679    0.0000 C   0  0  0  0  0  0  0  0  0  0  0  0
    5.5501   -8.4668    0.0000 C   0  0  0  0  0  0  0  0  0  0  0  0
    5.9584   -8.8751    0.0000 H   0  0  0  0  0  0  0  0  0  0  0  0
    4.8386   -7.9666    0.0000 O   0  0  0  0  0  0  0  0  0  0  0  0
    6.1276   -8.4668    0.0000 C   0  0  0  0  0  0  0  0  0  0  0  0
    6.3390   -6.5229    0.0000 C   0  0  0  0  0  0  0  0  0  0  0  0
    7.3392   -6.5229    0.0000 C   0  0  0  0  0  0  0  0  0  0  0  0
    8.3395   -6.5229    0.0000 H   0  0  0  0  0  0  0  0  0  0  0  0
    9.3398   -6.5229    0.0000 C   0  0  0  0  0  0  0  0  0  0  0  0
    4.8386   -6.8116    0.0000 H   0  0  0  0  0  0  0  0  0  0  0  0
    6.3390   -8.2554    0.0000 H   0  0  0  0  0  0  0  0  0  0  0  0
    6.8391   -7.3891    0.0000 H   0  0  0  0  0  0  0  0  0  0  0  0
    7.8394   -7.3891    0.0000 C   0  0  0  0  0  0  0  0  0  0  0  0
    9.8399   -6.2341    0.0000 O   0  0  0  0  0  0  0  0  0  0  0  0
    9.3398   -7.1004    0.0000 O   0  0  0  0  0  0  0  0  0  0  0  0
    3.8185   -6.8108    0.0000 C   0  0  0  0  0  0  0  0  0  0  0  0
    3.3192   -7.1010    0.0000 C   0  0  1  0  0  0  0  0  0  0  0  0
    3.3209   -7.6785    0.0000 C   0  0  1  0  0  0  0  0  0  0  0  0
    3.8218   -7.9657    0.0000 C   0  0  2  0  0  0  0  0  0  0  0  0
    4.3211   -7.6755    0.0000 C   0  0  1  0  0  0  0  0  0  0  0  0
    4.3194   -7.0981    0.0000 O   0  0  0  0  0  0  0  0  0  0  0  0
    2.8182   -6.8137    0.0000 O   0  0  0  0  0  0  0  0  0  0  0  0
    2.8216   -7.9687    0.0000 O   0  0  0  0  0  0  0  0  0  0  0  0
    3.8235   -8.5432    0.0000 O   0  0  0  0  0  0  0  0  0  0  0  0
    3.3242   -8.8334    0.0000 C   0  0  2  0  0  0  0  0  0  0  0  0
    2.8232   -8.5462    0.0000 O   0  0  0  0  0  0  0  0  0  0  0  0
    2.3240   -8.8364    0.0000 C   0  0  2  0  0  0  0  0  0  0  0  0
    2.3256   -9.4139    0.0000 C   0  0  1  0  0  0  0  0  0  0  0  0
    2.8266   -9.7011    0.0000 C   0  0  2  0  0  0  0  0  0  0  0  0
    3.3259   -9.4109    0.0000 C   0  0  1  0  0  0  0  0  0  0  0  0
    2.8283  -10.2786    0.0000 O   0  0  0  0  0  0  0  0  0  0  0  0
    3.8269   -9.6982    0.0000 O   0  0  0  0  0  0  0  0  0  0  0  0
    1.8263   -9.7041    0.0000 O   0  0  0  0  0  0  0  0  0  0  0  0
   10.8416   -7.4048    0.0000 C   0  0  2  0  0  0  0  0  0  0  0  0
   11.3421   -7.1168    0.0000 C   0  0  2  0  0  0  0  0  0  0  0  0
   11.3429   -6.5393    0.0000 C   0  0  1  0  0  0  0  0  0  0  0  0
   10.8432   -6.2498    0.0000 C   0  0  2  0  0  0  0  0  0  0  0  0
   10.3426   -6.5379    0.0000 C   0  0  1  0  0  0  0  0  0  0  0  0
   10.3418   -7.1154    0.0000 O   0  0  0  0  0  0  0  0  0  0  0  0
   10.8408   -7.9823    0.0000 C   0  0  0  0  0  0  0  0  0  0  0  0
   11.8434   -6.2512    0.0000 O   0  0  0  0  0  0  0  0  0  0  0  0
   11.8418   -7.4062    0.0000 O   0  0  0  0  0  0  0  0  0  0  0  0
   10.8440   -5.6723    0.0000 O   0  0  0  0  0  0  0  0  0  0  0  0
   11.3405   -8.2718    0.0000 O   0  0  0  0  0  0  0  0  0  0  0  0
   10.8321   -9.7265    0.0000 C   0  0  2  0  0  0  0  0  0  0  0  0
   11.3316  -10.0162    0.0000 C   0  0  2  0  0  0  0  0  0  0  0  0
   11.8323   -9.7285    0.0000 C   0  0  1  0  0  0  0  0  0  0  0  0
   11.8335   -9.1510    0.0000 C   0  0  2  0  0  0  0  0  0  0  0  0
   11.3340   -8.8612    0.0000 C   0  0  1  0  0  0  0  0  0  0  0  0
   10.8332   -9.1490    0.0000 O   0  0  0  0  0  0  0  0  0  0  0  0
   10.3314  -10.0142    0.0000 C   0  0  0  0  0  0  0  0  0  0  0  0
   12.3319  -10.0183    0.0000 O   0  0  0  0  0  0  0  0  0  0  0  0
   11.3304  -10.5937    0.0000 O   0  0  0  0  0  0  0  0  0  0  0  0
   12.3342   -8.8633    0.0000 O   0  0  0  0  0  0  0  0  0  0  0  0
   10.3302  -10.5917    0.0000 O   0  0  0  0  0  0  0  0  0  0  0  0
    1.8230   -8.5491    0.0000 C   0  0  0  0  0  0  0  0  0  0  0  0
    8.8396   -4.5016    0.0000 C   0  0  0  0  0  0  0  0  0  0  0  0
   11.0417  -11.1111    0.0000 C   0  0  2  0  0  0  0  0  0  0  0  0
   10.4642  -11.1121    0.0000 O   0  0  0  0  0  0  0  0  0  0  0  0
   10.1763  -11.6127    0.0000 C   0  0  2  0  0  0  0  0  0  0  0  0
   10.4660  -12.1124    0.0000 C   0  0  1  0  0  0  0  0  0  0  0  0
   11.0435  -12.1113    0.0000 C   0  0  2  0  0  0  0  0  0  0  0  0
   11.3313  -11.6107    0.0000 C   0  0  1  0  0  0  0  0  0  0  0  0
   11.3331  -12.6109    0.0000 O   0  0  0  0  0  0  0  0  0  0  0  0
   11.9088  -11.6097    0.0000 O   0  0  0  0  0  0  0  0  0  0  0  0
   10.1781  -12.6130    0.0000 O   0  0  0  0  0  0  0  0  0  0  0  0
    9.5988  -11.6138    0.0000 C   0  0  0  0  0  0  0  0  0  0  0  0
  1  2  1  0  0  0  0
  2  3  1  0  0  0  0
  3  4  1  0  0  0  0
  4  5  1  0  0  0  0
  5  6  1  0  0  0  0
  6  1  1  0  0  0  0
  4  7  1  0  0  0  0
  7  8  1  0  0  0  0
  8  9  1  0  0  0  0
  9 10  1  0  0  0  0
 10  5  1  0  0  0  0
  9 11  1  0  0  0  0
 11 12  1  0  0  0  0
 12 13  2  0  0  0  0
 13 14  1  0  0  0  0
 14 10  1  0  0  0  0
 11 15  1  0  0  0  0
 15 16  1  0  0  0  0
 16 17  1  0  0  0  0
 17 18  1  0  0  0  0
 18 12  1  0  0  0  0
 17 19  1  0  0  0  0
 19 20  1  0  0  0  0
 20 21  1  0  0  0  0
 21 22  1  0  0  0  0
 22 18  1  0  0  0  0
  3 23  1  6  0  0  0
 23 24  1  0  0  0  0
  2 25  1  1  0  0  0
  3 26  1  1  0  0  0
  5 27  1  1  0  0  0
  9 28  1  1  0  0  0
 18 29  1  1  0  0  0
 17 30  1  1  0  0  0
  1 31  1  6  0  0  0
  4 32  1  6  0  0  0
 10 33  1  6  0  0  0
 11 34  1  6  0  0  0
 30 35  1  0  0  0  0
 30 36  2  0  0  0  0
 37 38  1  0  0  0  0
 38 39  1  0  0  0  0
 39 40  1  0  0  0  0
 40 41  1  0  0  0  0
 41 42  1  0  0  0  0
 42 37  1  0  0  0  0
 38 43  1  1  0  0  0
 39 44  1  1  0  0  0
 40 45  1  6  0  0  0
 46 45  1  1  0  0  0
 46 47  1  0  0  0  0
 47 48  1  0  0  0  0
 48 49  1  0  0  0  0
 49 50  1  0  0  0  0
 50 51  1  0  0  0  0
 51 46  1  0  0  0  0
 50 52  1  6  0  0  0
 51 53  1  6  0  0  0
 49 54  1  1  0  0  0
 55 56  1  0  0  0  0
 56 57  1  0  0  0  0
 57 58  1  0  0  0  0
 58 59  1  0  0  0  0
 59 60  1  0  0  0  0
 60 55  1  0  0  0  0
 55 61  1  1  0  0  0
 57 62  1  1  0  0  0
 56 63  1  6  0  0  0
 58 64  1  6  0  0  0
 61 65  1  0  0  0  0
 66 67  1  0  0  0  0
 67 68  1  0  0  0  0
 68 69  1  0  0  0  0
 69 70  1  0  0  0  0
 70 71  1  0  0  0  0
 71 66  1  0  0  0  0
 66 72  1  1  0  0  0
 68 73  1  1  0  0  0
 67 74  1  6  0  0  0
 69 75  1  6  0  0  0
 72 76  1  0  0  0  0
 70 65  1  1  0  0  0
 48 77  1  6  0  0  0
 41 25  1  1  0  0  0
 59 35  1  1  0  0  0
 21 78  2  0  0  0  0
 79 80  1  0  0  0  0
 80 81  1  0  0  0  0
 81 82  1  0  0  0  0
 82 83  1  0  0  0  0
 83 84  1  0  0  0  0
 84 79  1  0  0  0  0
 83 85  1  6  0  0  0
 84 86  1  6  0  0  0
 82 87  1  1  0  0  0
 81 88  1  6  0  0  0
 79 74  1  1  0  0  0
M  END
>  <cdx:fragmentId>
5

$$$$
