98499.cdx
  Mrv1902 05222410272D          

 99109  0  0  0  0            999 V2000
    6.0262   -7.0454    0.0000 C   0  0  2  0  0  0  0  0  0  0  0  0
    6.0262   -7.6229    0.0000 C   0  0  1  0  0  0  0  0  0  0  0  0
    6.5263   -7.9116    0.0000 C   0  0  2  0  0  0  0  0  0  0  0  0
    7.0265   -7.6229    0.0000 C   0  0  1  0  0  0  0  0  0  0  0  0
    7.0265   -7.0454    0.0000 C   0  0  2  0  0  0  0  0  0  0  0  0
    6.5263   -6.7566    0.0000 C   0  0  0  0  0  0  0  0  0  0  0  0
    7.5266   -7.9116    0.0000 C   0  0  0  0  0  0  0  0  0  0  0  0
    8.0267   -7.6229    0.0000 C   0  0  0  0  0  0  0  0  0  0  0  0
    8.0267   -7.0454    0.0000 C   0  0  2  0  0  0  0  0  0  0  0  0
    7.5266   -6.7566    0.0000 C   0  0  2  0  0  0  0  0  0  0  0  0
    8.5269   -6.7566    0.0000 C   0  0  1  0  0  0  0  0  0  0  0  0
    8.5269   -6.1791    0.0000 C   0  0  0  0  0  0  0  0  0  0  0  0
    8.0267   -5.8904    0.0000 C   0  0  0  0  0  0  0  0  0  0  0  0
    7.5266   -6.1791    0.0000 C   0  0  0  0  0  0  0  0  0  0  0  0
    9.0270   -7.0454    0.0000 C   0  0  0  0  0  0  0  0  0  0  0  0
    9.5271   -6.7566    0.0000 C   0  0  0  0  0  0  0  0  0  0  0  0
    9.5271   -6.1791    0.0000 C   0  0  2  0  0  0  0  0  0  0  0  0
    9.0270   -5.8904    0.0000 C   0  0  1  0  0  0  0  0  0  0  0  0
   10.0273   -5.8904    0.0000 C   0  0  0  0  0  0  0  0  0  0  0  0
   10.0273   -5.3129    0.0000 C   0  0  0  0  0  0  0  0  0  0  0  0
    9.5271   -5.0241    0.0000 C   0  0  1  0  0  0  0  0  0  0  0  0
    9.0270   -5.3129    0.0000 C   0  0  0  0  0  0  0  0  0  0  0  0
    6.2376   -8.4118    0.0000 C   0  0  0  0  0  0  0  0  0  0  0  0
    6.6459   -8.8201    0.0000 O   0  0  0  0  0  0  0  0  0  0  0  0
    5.5261   -7.9116    0.0000 O   0  0  0  0  0  0  0  0  0  0  0  0
    6.8151   -8.4118    0.0000 C   0  0  0  0  0  0  0  0  0  0  0  0
    7.0265   -6.4679    0.0000 C   0  0  0  0  0  0  0  0  0  0  0  0
    8.0267   -6.4679    0.0000 C   0  0  0  0  0  0  0  0  0  0  0  0
    9.0270   -6.4679    0.0000 H   0  0  0  0  0  0  0  0  0  0  0  0
   10.0273   -6.4679    0.0000 C   0  0  0  0  0  0  0  0  0  0  0  0
    5.5261   -6.7566    0.0000 H   0  0  0  0  0  0  0  0  0  0  0  0
    7.0265   -8.2004    0.0000 H   0  0  0  0  0  0  0  0  0  0  0  0
    7.5266   -7.3341    0.0000 H   0  0  0  0  0  0  0  0  0  0  0  0
    8.5269   -7.3341    0.0000 C   0  0  0  0  0  0  0  0  0  0  0  0
   10.5274   -6.1791    0.0000 O   0  0  0  0  0  0  0  0  0  0  0  0
   10.0273   -7.0454    0.0000 O   0  0  0  0  0  0  0  0  0  0  0  0
    4.5060   -6.7558    0.0000 C   0  0  0  0  0  0  0  0  0  0  0  0
    4.0067   -7.0460    0.0000 C   0  0  1  0  0  0  0  0  0  0  0  0
    4.0084   -7.6235    0.0000 C   0  0  1  0  0  0  0  0  0  0  0  0
    4.5093   -7.9107    0.0000 C   0  0  2  0  0  0  0  0  0  0  0  0
    5.0086   -7.6205    0.0000 C   0  0  1  0  0  0  0  0  0  0  0  0
    5.0069   -7.0431    0.0000 O   0  0  0  0  0  0  0  0  0  0  0  0
    3.5057   -6.7587    0.0000 O   0  0  0  0  0  0  0  0  0  0  0  0
    3.5091   -7.9137    0.0000 O   0  0  0  0  0  0  0  0  0  0  0  0
    4.5110   -8.4882    0.0000 O   0  0  0  0  0  0  0  0  0  0  0  0
    4.0117   -8.7784    0.0000 C   0  0  2  0  0  0  0  0  0  0  0  0
    3.5107   -8.4912    0.0000 O   0  0  0  0  0  0  0  0  0  0  0  0
    3.0115   -8.7814    0.0000 C   0  0  0  0  0  0  0  0  0  0  0  0
    3.0131   -9.3589    0.0000 C   0  0  2  0  0  0  0  0  0  0  0  0
    3.5141   -9.6461    0.0000 C   0  0  1  0  0  0  0  0  0  0  0  0
    4.0134   -9.3559    0.0000 C   0  0  1  0  0  0  0  0  0  0  0  0
    3.5158  -10.2236    0.0000 O   0  0  0  0  0  0  0  0  0  0  0  0
    4.5144   -9.6432    0.0000 O   0  0  0  0  0  0  0  0  0  0  0  0
    2.5138   -9.6491    0.0000 O   0  0  0  0  0  0  0  0  0  0  0  0
   11.5291   -7.3498    0.0000 C   0  0  2  0  0  0  0  0  0  0  0  0
   12.0296   -7.0618    0.0000 C   0  0  2  0  0  0  0  0  0  0  0  0
   12.0304   -6.4843    0.0000 C   0  0  1  0  0  0  0  0  0  0  0  0
   11.5307   -6.1948    0.0000 C   0  0  2  0  0  0  0  0  0  0  0  0
   11.0301   -6.4829    0.0000 C   0  0  1  0  0  0  0  0  0  0  0  0
   11.0293   -7.0604    0.0000 O   0  0  0  0  0  0  0  0  0  0  0  0
   11.5283   -7.9273    0.0000 C   0  0  0  0  0  0  0  0  0  0  0  0
   12.5309   -6.1962    0.0000 O   0  0  0  0  0  0  0  0  0  0  0  0
   12.5293   -7.3512    0.0000 O   0  0  0  0  0  0  0  0  0  0  0  0
   11.5315   -5.6173    0.0000 O   0  0  0  0  0  0  0  0  0  0  0  0
   12.0280   -8.2168    0.0000 O   0  0  0  0  0  0  0  0  0  0  0  0
   11.5196   -9.6715    0.0000 C   0  0  2  0  0  0  0  0  0  0  0  0
   12.0191   -9.9612    0.0000 C   0  0  2  0  0  0  0  0  0  0  0  0
   12.5198   -9.6735    0.0000 C   0  0  1  0  0  0  0  0  0  0  0  0
   12.5210   -9.0960    0.0000 C   0  0  2  0  0  0  0  0  0  0  0  0
   12.0215   -8.8062    0.0000 C   0  0  1  0  0  0  0  0  0  0  0  0
   11.5207   -9.0940    0.0000 O   0  0  0  0  0  0  0  0  0  0  0  0
   11.0189   -9.9592    0.0000 C   0  0  0  0  0  0  0  0  0  0  0  0
   13.0194   -9.9633    0.0000 O   0  0  0  0  0  0  0  0  0  0  0  0
   12.0179  -10.5387    0.0000 O   0  0  0  0  0  0  0  0  0  0  0  0
   13.0217   -8.8083    0.0000 O   0  0  0  0  0  0  0  0  0  0  0  0
   11.0177  -10.5367    0.0000 O   0  0  0  0  0  0  0  0  0  0  0  0
   11.7292  -11.0561    0.0000 C   0  0  2  0  0  0  0  0  0  0  0  0
   11.1517  -11.0571    0.0000 O   0  0  0  0  0  0  0  0  0  0  0  0
   10.8638  -11.5577    0.0000 C   0  0  2  0  0  0  0  0  0  0  0  0
   11.1535  -12.0574    0.0000 C   0  0  1  0  0  0  0  0  0  0  0  0
   11.7310  -12.0563    0.0000 C   0  0  2  0  0  0  0  0  0  0  0  0
   12.0188  -11.5557    0.0000 C   0  0  1  0  0  0  0  0  0  0  0  0
   12.0206  -12.5559    0.0000 O   0  0  0  0  0  0  0  0  0  0  0  0
   12.5963  -11.5547    0.0000 O   0  0  0  0  0  0  0  0  0  0  0  0
   10.8656  -12.5580    0.0000 O   0  0  0  0  0  0  0  0  0  0  0  0
   10.2863  -11.5588    0.0000 C   0  0  0  0  0  0  0  0  0  0  0  0
    9.1834   -4.5159    0.0000 C   0  0  0  0  0  0  0  0  0  0  0  0
    9.8434   -4.5159    0.0000 C   0  0  0  0  0  0  0  0  0  0  0  0
    2.5040   -6.7548    0.0000 C   0  0  2  0  0  0  0  0  0  0  0  0
    2.0031   -7.0423    0.0000 C   0  0  2  0  0  0  0  0  0  0  0  0
    2.0017   -7.6198    0.0000 C   0  0  1  0  0  0  0  0  0  0  0  0
    2.5011   -7.9098    0.0000 C   0  0  2  0  0  0  0  0  0  0  0  0
    3.0019   -7.6223    0.0000 C   0  0  1  0  0  0  0  0  0  0  0  0
    3.0034   -7.0448    0.0000 O   0  0  0  0  0  0  0  0  0  0  0  0
    2.5054   -6.1773    0.0000 C   0  0  0  0  0  0  0  0  0  0  0  0
    1.5009   -7.9073    0.0000 O   0  0  0  0  0  0  0  0  0  0  0  0
    1.5037   -6.7523    0.0000 O   0  0  0  0  0  0  0  0  0  0  0  0
    2.4997   -8.4873    0.0000 O   0  0  0  0  0  0  0  0  0  0  0  0
    2.0060   -5.8873    0.0000 O   0  0  0  0  0  0  0  0  0  0  0  0
  1  2  1  0  0  0  0
  2  3  1  0  0  0  0
  3  4  1  0  0  0  0
  4  5  1  0  0  0  0
  5  6  1  0  0  0  0
  6  1  1  0  0  0  0
  4  7  1  0  0  0  0
  7  8  1  0  0  0  0
  8  9  1  0  0  0  0
  9 10  1  0  0  0  0
 10  5  1  0  0  0  0
  9 11  1  0  0  0  0
 11 12  1  0  0  0  0
 12 13  2  0  0  0  0
 13 14  1  0  0  0  0
 14 10  1  0  0  0  0
 11 15  1  0  0  0  0
 15 16  1  0  0  0  0
 16 17  1  0  0  0  0
 17 18  1  0  0  0  0
 18 12  1  0  0  0  0
 17 19  1  0  0  0  0
 19 20  1  0  0  0  0
 20 21  1  0  0  0  0
 21 22  1  0  0  0  0
 22 18  1  0  0  0  0
  3 23  1  6  0  0  0
 23 24  1  0  0  0  0
  2 25  1  1  0  0  0
  3 26  1  1  0  0  0
  5 27  1  1  0  0  0
  9 28  1  1  0  0  0
 18 29  1  1  0  0  0
 17 30  1  1  0  0  0
  1 31  1  6  0  0  0
  4 32  1  6  0  0  0
 10 33  1  6  0  0  0
 11 34  1  6  0  0  0
 30 35  1  0  0  0  0
 30 36  2  0  0  0  0
 37 38  1  0  0  0  0
 38 39  1  0  0  0  0
 39 40  1  0  0  0  0
 40 41  1  0  0  0  0
 41 42  1  0  0  0  0
 42 37  1  0  0  0  0
 38 43  1  1  0  0  0
 39 44  1  1  0  0  0
 40 45  1  6  0  0  0
 46 45  1  1  0  0  0
 46 47  1  0  0  0  0
 47 48  1  0  0  0  0
 48 49  1  0  0  0  0
 49 50  1  0  0  0  0
 50 51  1  0  0  0  0
 51 46  1  0  0  0  0
 50 52  1  1  0  0  0
 51 53  1  6  0  0  0
 49 54  1  6  0  0  0
 55 56  1  0  0  0  0
 56 57  1  0  0  0  0
 57 58  1  0  0  0  0
 58 59  1  0  0  0  0
 59 60  1  0  0  0  0
 60 55  1  0  0  0  0
 55 61  1  1  0  0  0
 57 62  1  1  0  0  0
 56 63  1  6  0  0  0
 58 64  1  6  0  0  0
 61 65  1  0  0  0  0
 66 67  1  0  0  0  0
 67 68  1  0  0  0  0
 68 69  1  0  0  0  0
 69 70  1  0  0  0  0
 70 71  1  0  0  0  0
 71 66  1  0  0  0  0
 66 72  1  1  0  0  0
 68 73  1  1  0  0  0
 67 74  1  6  0  0  0
 69 75  1  6  0  0  0
 72 76  1  0  0  0  0
 70 65  1  1  0  0  0
 41 25  1  1  0  0  0
 59 35  1  1  0  0  0
 77 78  1  0  0  0  0
 78 79  1  0  0  0  0
 79 80  1  0  0  0  0
 80 81  1  0  0  0  0
 81 82  1  0  0  0  0
 82 77  1  0  0  0  0
 81 83  1  6  0  0  0
 82 84  1  6  0  0  0
 80 85  1  1  0  0  0
 79 86  1  6  0  0  0
 77 74  1  1  0  0  0
 21 87  1  1  0  0  0
 21 88  1  6  0  0  0
 89 90  1  0  0  0  0
 90 91  1  0  0  0  0
 91 92  1  0  0  0  0
 92 93  1  0  0  0  0
 93 94  1  0  0  0  0
 94 89  1  0  0  0  0
 89 95  1  1  0  0  0
 91 96  1  1  0  0  0
 90 97  1  6  0  0  0
 92 98  1  6  0  0  0
 95 99  1  0  0  0  0
 93 44  1  1  0  0  0
M  END
>  <cdx:fragmentId>
5

$$$$
