98491.cdx
  Mrv1902 05222410192D          

 88 97  0  0  0  0            999 V2000
    4.7750   -7.6641    0.0000 C   0  0  2  0  0  0  0  0  0  0  0  0
    4.7750   -8.2416    0.0000 C   0  0  1  0  0  0  0  0  0  0  0  0
    5.2751   -8.5304    0.0000 C   0  0  2  0  0  0  0  0  0  0  0  0
    5.7752   -8.2416    0.0000 C   0  0  1  0  0  0  0  0  0  0  0  0
    5.7752   -7.6641    0.0000 C   0  0  2  0  0  0  0  0  0  0  0  0
    5.2751   -7.3754    0.0000 C   0  0  0  0  0  0  0  0  0  0  0  0
    6.2754   -8.5304    0.0000 C   0  0  0  0  0  0  0  0  0  0  0  0
    6.7755   -8.2416    0.0000 C   0  0  0  0  0  0  0  0  0  0  0  0
    6.7755   -7.6641    0.0000 C   0  0  2  0  0  0  0  0  0  0  0  0
    6.2754   -7.3754    0.0000 C   0  0  2  0  0  0  0  0  0  0  0  0
    7.2756   -7.3754    0.0000 C   0  0  1  0  0  0  0  0  0  0  0  0
    7.2756   -6.7979    0.0000 C   0  0  0  0  0  0  0  0  0  0  0  0
    6.7755   -6.5091    0.0000 C   0  0  0  0  0  0  0  0  0  0  0  0
    6.2754   -6.7979    0.0000 C   0  0  0  0  0  0  0  0  0  0  0  0
    7.7757   -7.6641    0.0000 C   0  0  0  0  0  0  0  0  0  0  0  0
    8.2759   -7.3754    0.0000 C   0  0  0  0  0  0  0  0  0  0  0  0
    8.2759   -6.7979    0.0000 C   0  0  2  0  0  0  0  0  0  0  0  0
    7.7757   -6.5091    0.0000 C   0  0  1  0  0  0  0  0  0  0  0  0
    8.7760   -6.5091    0.0000 C   0  0  0  0  0  0  0  0  0  0  0  0
    8.7760   -5.9316    0.0000 C   0  0  0  0  0  0  0  0  0  0  0  0
    8.2759   -5.6429    0.0000 C   0  0  1  0  0  0  0  0  0  0  0  0
    7.7757   -5.9316    0.0000 C   0  0  0  0  0  0  0  0  0  0  0  0
    4.9863   -9.0305    0.0000 C   0  0  0  0  0  0  0  0  0  0  0  0
    5.3947   -9.4389    0.0000 O   0  0  0  0  0  0  0  0  0  0  0  0
    4.2748   -8.5304    0.0000 O   0  0  0  0  0  0  0  0  0  0  0  0
    5.5638   -9.0305    0.0000 C   0  0  0  0  0  0  0  0  0  0  0  0
    5.7752   -7.0866    0.0000 C   0  0  0  0  0  0  0  0  0  0  0  0
    6.7755   -7.0866    0.0000 C   0  0  0  0  0  0  0  0  0  0  0  0
    7.7757   -7.0866    0.0000 H   0  0  0  0  0  0  0  0  0  0  0  0
    8.7760   -7.0866    0.0000 C   0  0  0  0  0  0  0  0  0  0  0  0
    7.9871   -5.1428    0.0000 C   0  0  0  0  0  0  0  0  0  0  0  0
    4.2748   -7.3754    0.0000 H   0  0  0  0  0  0  0  0  0  0  0  0
    5.7752   -8.8191    0.0000 H   0  0  0  0  0  0  0  0  0  0  0  0
    6.2754   -7.9529    0.0000 H   0  0  0  0  0  0  0  0  0  0  0  0
    7.2756   -7.9529    0.0000 C   0  0  0  0  0  0  0  0  0  0  0  0
    8.5646   -5.1428    0.0000 C   0  0  0  0  0  0  0  0  0  0  0  0
    9.2761   -6.7979    0.0000 O   0  0  0  0  0  0  0  0  0  0  0  0
    8.7760   -7.6641    0.0000 O   0  0  0  0  0  0  0  0  0  0  0  0
    3.2848   -7.3852    0.0000 C   0  0  0  0  0  0  0  0  0  0  0  0
    2.7851   -7.6746    0.0000 C   0  0  1  0  0  0  0  0  0  0  0  0
    2.7858   -8.2521    0.0000 C   0  0  1  0  0  0  0  0  0  0  0  0
    3.2863   -8.5402    0.0000 C   0  0  2  0  0  0  0  0  0  0  0  0
    3.7860   -8.2508    0.0000 C   0  0  1  0  0  0  0  0  0  0  0  0
    3.7853   -7.6733    0.0000 O   0  0  0  0  0  0  0  0  0  0  0  0
    2.2846   -7.3864    0.0000 O   0  0  0  0  0  0  0  0  0  0  0  0
    2.2860   -8.5414    0.0000 O   0  0  0  0  0  0  0  0  0  0  0  0
    3.2870   -9.1177    0.0000 O   0  0  0  0  0  0  0  0  0  0  0  0
    2.7872   -9.4071    0.0000 C   0  0  2  0  0  0  0  0  0  0  0  0
    2.2868   -9.1189    0.0000 O   0  0  0  0  0  0  0  0  0  0  0  0
    1.7870   -9.4083    0.0000 C   0  0  0  0  0  0  0  0  0  0  0  0
    1.7877   -9.9858    0.0000 C   0  0  2  0  0  0  0  0  0  0  0  0
    2.2882  -10.2739    0.0000 C   0  0  1  0  0  0  0  0  0  0  0  0
    2.7880   -9.9846    0.0000 C   0  0  1  0  0  0  0  0  0  0  0  0
    2.2889  -10.8514    0.0000 O   0  0  0  0  0  0  0  0  0  0  0  0
    3.2885  -10.2727    0.0000 O   0  0  0  0  0  0  0  0  0  0  0  0
    1.2880  -10.2752    0.0000 O   0  0  0  0  0  0  0  0  0  0  0  0
   10.2865   -7.9491    0.0000 C   0  0  2  0  0  0  0  0  0  0  0  0
   10.7870   -7.6609    0.0000 C   0  0  2  0  0  0  0  0  0  0  0  0
   10.7876   -7.0834    0.0000 C   0  0  1  0  0  0  0  0  0  0  0  0
   10.2878   -6.7941    0.0000 C   0  0  2  0  0  0  0  0  0  0  0  0
    9.7873   -7.0823    0.0000 C   0  0  1  0  0  0  0  0  0  0  0  0
    9.7867   -7.6598    0.0000 O   0  0  0  0  0  0  0  0  0  0  0  0
   10.2859   -8.5266    0.0000 C   0  0  0  0  0  0  0  0  0  0  0  0
   11.2880   -6.7952    0.0000 O   0  0  0  0  0  0  0  0  0  0  0  0
   11.2868   -7.9502    0.0000 O   0  0  0  0  0  0  0  0  0  0  0  0
   10.2884   -6.2166    0.0000 O   0  0  0  0  0  0  0  0  0  0  0  0
   10.7857   -8.8159    0.0000 O   0  0  0  0  0  0  0  0  0  0  0  0
   10.2777  -10.2707    0.0000 C   0  0  2  0  0  0  0  0  0  0  0  0
   10.7774  -10.5604    0.0000 C   0  0  2  0  0  0  0  0  0  0  0  0
   11.2780  -10.2725    0.0000 C   0  0  1  0  0  0  0  0  0  0  0  0
   11.2790   -9.6950    0.0000 C   0  0  2  0  0  0  0  0  0  0  0  0
   10.7794   -9.4054    0.0000 C   0  0  1  0  0  0  0  0  0  0  0  0
   10.2787   -9.6932    0.0000 O   0  0  0  0  0  0  0  0  0  0  0  0
    9.7771  -10.5586    0.0000 C   0  0  0  0  0  0  0  0  0  0  0  0
   11.7776  -10.5621    0.0000 O   0  0  0  0  0  0  0  0  0  0  0  0
   10.7764  -11.1379    0.0000 O   0  0  0  0  0  0  0  0  0  0  0  0
   11.7796   -9.4071    0.0000 O   0  0  0  0  0  0  0  0  0  0  0  0
    9.7761  -11.1361    0.0000 O   0  0  0  0  0  0  0  0  0  0  0  0
   11.0646  -11.6383    0.0000 C   0  0  2  0  0  0  0  0  0  0  0  0
   10.7753  -12.1381    0.0000 O   0  0  0  0  0  0  0  0  0  0  0  0
   11.0635  -12.6386    0.0000 C   0  0  2  0  0  0  0  0  0  0  0  0
   11.6410  -12.6392    0.0000 C   0  0  1  0  0  0  0  0  0  0  0  0
   11.9303  -12.1394    0.0000 C   0  0  2  0  0  0  0  0  0  0  0  0
   11.6421  -11.6389    0.0000 C   0  0  1  0  0  0  0  0  0  0  0  0
   11.9292  -13.1396    0.0000 O   0  0  0  0  0  0  0  0  0  0  0  0
   10.7742  -13.1384    0.0000 C   0  0  0  0  0  0  0  0  0  0  0  0
   12.5078  -12.1400    0.0000 O   0  0  0  0  0  0  0  0  0  0  0  0
   11.9314  -11.1391    0.0000 O   0  0  0  0  0  0  0  0  0  0  0  0
  1  2  1  0  0  0  0
  2  3  1  0  0  0  0
  3  4  1  0  0  0  0
  4  5  1  0  0  0  0
  5  6  1  0  0  0  0
  6  1  1  0  0  0  0
  4  7  1  0  0  0  0
  7  8  1  0  0  0  0
  8  9  1  0  0  0  0
  9 10  1  0  0  0  0
 10  5  1  0  0  0  0
  9 11  1  0  0  0  0
 11 12  1  0  0  0  0
 12 13  2  0  0  0  0
 13 14  1  0  0  0  0
 14 10  1  0  0  0  0
 11 15  1  0  0  0  0
 15 16  1  0  0  0  0
 16 17  1  0  0  0  0
 17 18  1  0  0  0  0
 18 12  1  0  0  0  0
 17 19  1  0  0  0  0
 19 20  1  0  0  0  0
 20 21  1  0  0  0  0
 21 22  1  0  0  0  0
 22 18  1  0  0  0  0
  3 23  1  6  0  0  0
 23 24  1  0  0  0  0
  2 25  1  1  0  0  0
  3 26  1  1  0  0  0
  5 27  1  1  0  0  0
  9 28  1  1  0  0  0
 18 29  1  1  0  0  0
 17 30  1  1  0  0  0
 21 31  1  1  0  0  0
  1 32  1  6  0  0  0
  4 33  1  6  0  0  0
 10 34  1  6  0  0  0
 11 35  1  6  0  0  0
 21 36  1  6  0  0  0
 30 37  1  0  0  0  0
 30 38  2  0  0  0  0
 39 40  1  0  0  0  0
 40 41  1  0  0  0  0
 41 42  1  0  0  0  0
 42 43  1  0  0  0  0
 43 44  1  0  0  0  0
 44 39  1  0  0  0  0
 40 45  1  1  0  0  0
 41 46  1  1  0  0  0
 42 47  1  6  0  0  0
 48 47  1  1  0  0  0
 48 49  1  0  0  0  0
 49 50  1  0  0  0  0
 50 51  1  0  0  0  0
 51 52  1  0  0  0  0
 52 53  1  0  0  0  0
 53 48  1  0  0  0  0
 52 54  1  1  0  0  0
 53 55  1  6  0  0  0
 51 56  1  6  0  0  0
 57 58  1  0  0  0  0
 58 59  1  0  0  0  0
 59 60  1  0  0  0  0
 60 61  1  0  0  0  0
 61 62  1  0  0  0  0
 62 57  1  0  0  0  0
 57 63  1  1  0  0  0
 59 64  1  1  0  0  0
 58 65  1  6  0  0  0
 60 66  1  6  0  0  0
 63 67  1  0  0  0  0
 68 69  1  0  0  0  0
 69 70  1  0  0  0  0
 70 71  1  0  0  0  0
 71 72  1  0  0  0  0
 72 73  1  0  0  0  0
 73 68  1  0  0  0  0
 68 74  1  1  0  0  0
 70 75  1  1  0  0  0
 69 76  1  6  0  0  0
 71 77  1  6  0  0  0
 74 78  1  0  0  0  0
 72 67  1  1  0  0  0
 79 76  1  1  0  0  0
 79 80  1  0  0  0  0
 80 81  1  0  0  0  0
 81 82  1  0  0  0  0
 82 83  1  0  0  0  0
 83 84  1  0  0  0  0
 84 79  1  0  0  0  0
 82 85  1  1  0  0  0
 81 86  1  6  0  0  0
 83 87  1  6  0  0  0
 84 88  1  6  0  0  0
 61 37  1  1  0  0  0
 43 25  1  1  0  0  0
M  END
>  <cdx:fragmentId>
5

$$$$
