98503.cdx
  Mrv1902 05222410272D          

 20 21  0  0  0  0            999 V2000
    6.4542   -8.2225    0.0000 C   0  0  0  0  0  0  0  0  0  0  0  0
    6.4542   -7.3975    0.0000 C   0  0  0  0  0  0  0  0  0  0  0  0
    5.7397   -6.9850    0.0000 O   0  0  0  0  0  0  0  0  0  0  0  0
    7.1687   -8.6350    0.0000 C   0  0  0  0  0  0  0  0  0  0  0  0
    7.8831   -8.2225    0.0000 C   0  0  0  0  0  0  0  0  0  0  0  0
    7.8831   -7.3975    0.0000 C   0  0  0  0  0  0  0  0  0  0  0  0
    7.1687   -6.9850    0.0000 C   0  0  0  0  0  0  0  0  0  0  0  0
    8.5976   -8.6350    0.0000 C   0  0  0  0  0  0  0  0  0  0  0  0
    9.3121   -8.2225    0.0000 C   0  0  0  0  0  0  0  0  0  0  0  0
    9.3121   -7.3975    0.0000 C   0  0  0  0  0  0  0  0  0  0  0  0
    8.5976   -6.9850    0.0000 O   0  0  0  0  0  0  0  0  0  0  0  0
   10.0266   -6.9850    0.0000 C   0  0  0  0  0  0  0  0  0  0  0  0
    7.1687   -9.4600    0.0000 C   0  0  0  0  0  0  0  0  0  0  0  0
    8.5976   -9.4600    0.0000 O   0  0  0  0  0  0  0  0  0  0  0  0
    5.0555   -7.4667    0.0000 S   0  0  0  0  0  0  0  0  0  0  0  0
    4.3749   -7.9330    0.0000 O   0  0  0  0  0  0  0  0  0  0  0  0
    5.5218   -8.1473    0.0000 O   0  0  0  0  0  0  0  0  0  0  0  0
    4.5892   -6.7861    0.0000 O   0  0  0  0  0  0  0  0  0  0  0  0
    7.8831   -9.8725    0.0000 O   0  0  0  0  0  0  0  0  0  0  0  0
    6.4542   -9.8725    0.0000 O   0  0  0  0  0  0  0  0  0  0  0  0
  1  2  2  0  0  0  0
  2  3  1  0  0  0  0
  1  4  1  0  0  0  0
  4  5  2  0  0  0  0
  5  6  1  0  0  0  0
  6  7  2  0  0  0  0
  7  2  1  0  0  0  0
  5  8  1  0  0  0  0
  8  9  1  0  0  0  0
  9 10  2  0  0  0  0
 10 11  1  0  0  0  0
 11  6  1  0  0  0  0
 10 12  1  0  0  0  0
  4 13  1  0  0  0  0
 14  8  2  0  0  0  0
 15 16  1  0  0  0  0
 15 17  2  0  0  0  0
 15 18  2  0  0  0  0
 13 19  1  0  0  0  0
 13 20  2  0  0  0  0
 15  3  1  0  0  0  0
M  END
>  <cdx:fragmentId>
5

$$$$
