98502.cdx
  Mrv1902 05222410272D          

 23 24  0  0  0  0            999 V2000
    3.8274   -8.6212    0.0000 C   0  0  0  0  0  0  0  0  0  0  0  0
    4.5419   -9.0337    0.0000 C   0  0  0  0  0  0  0  0  0  0  0  0
    5.2564   -8.6212    0.0000 C   0  0  0  0  0  0  0  0  0  0  0  0
    5.2564   -7.7963    0.0000 C   0  0  0  0  0  0  0  0  0  0  0  0
    4.5419   -7.3838    0.0000 C   0  0  0  0  0  0  0  0  0  0  0  0
    5.9708   -9.0337    0.0000 C   0  0  0  0  0  0  0  0  0  0  0  0
    6.6853   -8.6212    0.0000 C   0  0  0  0  0  0  0  0  0  0  0  0
    6.6853   -7.7963    0.0000 C   0  0  0  0  0  0  0  0  0  0  0  0
    5.9708   -7.3838    0.0000 C   0  0  0  0  0  0  0  0  0  0  0  0
    7.3998   -9.0337    0.0000 C   0  0  0  0  0  0  0  0  0  0  0  0
    8.1143   -8.6212    0.0000 C   0  0  0  0  0  0  0  0  0  0  0  0
    8.1143   -7.7963    0.0000 C   0  0  0  0  0  0  0  0  0  0  0  0
    7.3998   -7.3838    0.0000 C   0  0  0  0  0  0  0  0  0  0  0  0
    8.8287   -7.3838    0.0000 O   0  0  0  0  0  0  0  0  0  0  0  0
    7.3998   -6.5587    0.0000 O   0  0  0  0  0  0  0  0  0  0  0  0
    9.5432   -7.7963    0.0000 C   0  0  0  0  0  0  0  0  0  0  0  0
    5.9708   -9.8588    0.0000 O   0  0  0  0  0  0  0  0  0  0  0  0
    7.3998   -9.8588    0.0000 O   0  0  0  0  0  0  0  0  0  0  0  0
    4.5419   -9.8588    0.0000 O   0  0  0  0  0  0  0  0  0  0  0  0
    6.4347  -10.5410    0.0000 S   0  0  0  0  0  0  0  0  0  0  0  0
    6.8985  -11.2233    0.0000 O   0  0  0  0  0  0  0  0  0  0  0  0
    7.1169  -10.0772    0.0000 O   0  0  0  0  0  0  0  0  0  0  0  0
    5.7524  -11.0048    0.0000 O   0  0  0  0  0  0  0  0  0  0  0  0
  1  2  1  0  0  0  0
  2  3  1  0  0  0  0
  3  4  2  0  0  0  0
  4  5  1  0  0  0  0
  3  6  1  0  0  0  0
  6  7  2  0  0  0  0
  7  8  1  0  0  0  0
  8  9  2  0  0  0  0
  9  4  1  0  0  0  0
  7 10  1  0  0  0  0
 10 11  1  0  0  0  0
 11 12  2  0  0  0  0
 12 13  1  0  0  0  0
 13  8  1  0  0  0  0
 12 14  1  0  0  0  0
 15 13  2  0  0  0  0
 16 14  1  0  0  0  0
  6 17  1  0  0  0  0
 18 10  2  0  0  0  0
  2 19  2  0  0  0  0
 17 20  1  0  0  0  0
 20 21  1  0  0  0  0
 20 22  2  0  0  0  0
 20 23  2  0  0  0  0
M  END
>  <cdx:fragmentId>
5

$$$$
