98507.cdx
  Mrv1902 05222410272D          

 60 65  0  0  0  0            999 V2000
   15.8195   -6.6982    0.0000 C   0  0  0  0  0  0  0  0  0  0  0  0
   15.8195   -7.5232    0.0000 C   0  0  0  0  0  0  0  0  0  0  0  0
   16.5340   -7.9357    0.0000 O   0  0  0  0  0  0  0  0  0  0  0  0
   15.1050   -7.9357    0.0000 C   0  0  0  0  0  0  0  0  0  0  0  0
   15.1050   -8.7607    0.0000 O   0  0  0  0  0  0  0  0  0  0  0  0
   14.3906   -7.5232    0.0000 C   0  0  0  0  0  0  0  0  0  0  0  0
   13.6761   -7.9357    0.0000 C   0  0  0  0  0  0  0  0  0  0  0  0
   13.6761   -8.7607    0.0000 O   0  0  0  0  0  0  0  0  0  0  0  0
   12.9616   -7.5232    0.0000 C   0  0  0  0  0  0  0  0  0  0  0  0
   12.9616   -6.6982    0.0000 C   0  0  0  0  0  0  0  0  0  0  0  0
   13.6761   -6.2857    0.0000 C   0  0  0  0  0  0  0  0  0  0  0  0
   14.3906   -6.6982    0.0000 C   0  0  0  0  0  0  0  0  0  0  0  0
   15.1050   -6.2857    0.0000 O   0  0  0  0  0  0  0  0  0  0  0  0
   16.5340   -6.2857    0.0000 C   0  0  0  0  0  0  0  0  0  0  0  0
   16.5340   -5.4607    0.0000 C   0  0  0  0  0  0  0  0  0  0  0  0
   17.2485   -5.0482    0.0000 C   0  0  0  0  0  0  0  0  0  0  0  0
   17.9629   -5.4607    0.0000 C   0  0  0  0  0  0  0  0  0  0  0  0
   18.6774   -5.0482    0.0000 O   0  0  0  0  0  0  0  0  0  0  0  0
   17.9629   -6.2857    0.0000 C   0  0  0  0  0  0  0  0  0  0  0  0
   17.2485   -6.6982    0.0000 C   0  0  0  0  0  0  0  0  0  0  0  0
   12.2472   -6.2857    0.0000 O   0  0  0  0  0  0  0  0  0  0  0  0
   11.5327   -6.6982    0.0000 C   0  0  1  0  0  0  0  0  0  0  0  0
   11.5327   -7.5232    0.0000 C   0  0  2  0  0  0  0  0  0  0  0  0
   12.2472   -7.9357    0.0000 O   0  0  0  0  0  0  0  0  0  0  0  0
   10.8182   -7.9357    0.0000 C   0  0  1  0  0  0  0  0  0  0  0  0
   10.8182   -8.7607    0.0000 O   0  0  0  0  0  0  0  0  0  0  0  0
   10.1037   -7.5232    0.0000 C   0  0  2  0  0  0  0  0  0  0  0  0
    9.3893   -7.9357    0.0000 O   0  0  0  0  0  0  0  0  0  0  0  0
   10.1037   -6.6982    0.0000 C   0  0  2  0  0  0  0  0  0  0  0  0
   10.8182   -6.2857    0.0000 O   0  0  0  0  0  0  0  0  0  0  0  0
    9.3893   -6.2857    0.0000 C   0  0  0  0  0  0  0  0  0  0  0  0
    8.6748   -6.6982    0.0000 O   0  0  0  0  0  0  0  0  0  0  0  0
    4.4032   -6.7231    0.0000 C   0  0  0  0  0  0  0  0  0  0  0  0
    4.4032   -7.5481    0.0000 C   0  0  0  0  0  0  0  0  0  0  0  0
    5.1177   -7.9606    0.0000 C   0  0  0  0  0  0  0  0  0  0  0  0
    5.8322   -7.5481    0.0000 C   0  0  0  0  0  0  0  0  0  0  0  0
    5.8322   -6.7231    0.0000 C   0  0  0  0  0  0  0  0  0  0  0  0
    5.1177   -6.3106    0.0000 C   0  0  0  0  0  0  0  0  0  0  0  0
    6.5466   -6.3106    0.0000 C   0  0  0  0  0  0  0  0  0  0  0  0
    7.2611   -6.7231    0.0000 C   0  0  0  0  0  0  0  0  0  0  0  0
    7.9756   -6.3106    0.0000 C   0  0  0  0  0  0  0  0  0  0  0  0
    7.9756   -5.4856    0.0000 O   0  0  0  0  0  0  0  0  0  0  0  0
    5.6622  -10.0605    0.0000 C   0  0  0  0  0  0  0  0  0  0  0  0
    6.0728  -10.7761    0.0000 C   0  0  0  0  0  0  0  0  0  0  0  0
    6.8978  -10.7783    0.0000 C   0  0  0  0  0  0  0  0  0  0  0  0
    7.3122  -10.0649    0.0000 C   0  0  0  0  0  0  0  0  0  0  0  0
    6.9016   -9.3493    0.0000 C   0  0  0  0  0  0  0  0  0  0  0  0
    6.0766   -9.3471    0.0000 C   0  0  0  0  0  0  0  0  0  0  0  0
    7.3160   -8.6360    0.0000 C   0  0  0  0  0  0  0  0  0  0  0  0
    8.1410   -8.6382    0.0000 C   0  0  0  0  0  0  0  0  0  0  0  0
    8.5554   -7.9248    0.0000 C   0  0  0  0  0  0  0  0  0  0  0  0
    8.1449   -7.2092    0.0000 O   0  0  0  0  0  0  0  0  0  0  0  0
    3.6888   -7.9606    0.0000 O   0  0  0  0  0  0  0  0  0  0  0  0
    5.6584  -11.4894    0.0000 O   0  0  0  0  0  0  0  0  0  0  0  0
   12.2472   -8.7607    0.0000 C   0  0  0  0  0  0  0  0  0  0  0  0
   12.9616   -9.1732    0.0000 C   0  0  0  0  0  0  0  0  0  0  0  0
   11.5327   -9.1732    0.0000 O   0  0  0  0  0  0  0  0  0  0  0  0
   10.1037   -9.1732    0.0000 C   0  0  0  0  0  0  0  0  0  0  0  0
   10.1037   -9.9982    0.0000 C   0  0  0  0  0  0  0  0  0  0  0  0
    9.3893   -8.7607    0.0000 O   0  0  0  0  0  0  0  0  0  0  0  0
  1  2  2  0  0  0  0
  2  3  1  0  0  0  0
  2  4  1  0  0  0  0
  4  5  2  0  0  0  0
  4  6  1  0  0  0  0
  6  7  1  0  0  0  0
  7  8  1  0  0  0  0
  7  9  2  0  0  0  0
  9 10  1  0  0  0  0
 10 11  2  0  0  0  0
 11 12  1  0  0  0  0
  6 12  2  0  0  0  0
 12 13  1  0  0  0  0
  1 13  1  0  0  0  0
  1 14  1  0  0  0  0
 14 15  1  0  0  0  0
 15 16  2  0  0  0  0
 16 17  1  0  0  0  0
 17 18  1  0  0  0  0
 17 19  2  0  0  0  0
 19 20  1  0  0  0  0
 14 20  2  0  0  0  0
 22 21  1  1  0  0  0
 22 23  1  0  0  0  0
 23 24  1  6  0  0  0
 23 25  1  0  0  0  0
 25 26  1  1  0  0  0
 25 27  1  0  0  0  0
 27 28  1  6  0  0  0
 27 29  1  0  0  0  0
 29 30  1  0  0  0  0
 29 31  1  1  0  0  0
 31 32  1  0  0  0  0
 22 30  1  0  0  0  0
 10 21  1  0  0  0  0
 33 34  2  0  0  0  0
 34 35  1  0  0  0  0
 35 36  2  0  0  0  0
 36 37  1  0  0  0  0
 37 38  2  0  0  0  0
 38 33  1  0  0  0  0
 37 39  1  0  0  0  0
 39 40  2  0  0  0  0
 40 41  1  0  0  0  0
 41 42  2  0  0  0  0
 43 44  2  0  0  0  0
 44 45  1  0  0  0  0
 45 46  2  0  0  0  0
 46 47  1  0  0  0  0
 47 48  2  0  0  0  0
 48 43  1  0  0  0  0
 47 49  1  0  0  0  0
 49 50  2  0  0  0  0
 50 51  1  0  0  0  0
 51 52  2  0  0  0  0
 34 53  1  0  0  0  0
 44 54  1  0  0  0  0
 24 55  1  0  0  0  0
 55 56  1  0  0  0  0
 55 57  2  0  0  0  0
 26 58  1  0  0  0  0
 58 59  1  0  0  0  0
 58 60  2  0  0  0  0
 41 32  1  0  0  0  0
 51 28  1  0  0  0  0
M  END
>  <cdx:fragmentId>
5

$$$$
