98506.cdx
  Mrv1902 05222410272D          

 40 44  0  0  0  0            999 V2000
    5.9862   -8.1675    0.0000 C   0  0  0  0  0  0  0  0  0  0  0  0
    5.9862   -8.9925    0.0000 C   0  0  0  0  0  0  0  0  0  0  0  0
    6.7006   -9.4050    0.0000 C   0  0  0  0  0  0  0  0  0  0  0  0
    7.4151   -8.9925    0.0000 C   0  0  0  0  0  0  0  0  0  0  0  0
    7.4151   -8.1675    0.0000 C   0  0  0  0  0  0  0  0  0  0  0  0
    6.7006   -7.7550    0.0000 C   0  0  0  0  0  0  0  0  0  0  0  0
    8.1296   -9.4050    0.0000 C   0  0  0  0  0  0  0  0  0  0  0  0
    8.8441   -8.9925    0.0000 C   0  0  0  0  0  0  0  0  0  0  0  0
    8.8441   -8.1675    0.0000 C   0  0  0  0  0  0  0  0  0  0  0  0
    8.1296   -7.7550    0.0000 O   0  0  0  0  0  0  0  0  0  0  0  0
    6.7006  -10.2300    0.0000 O   0  0  0  0  0  0  0  0  0  0  0  0
    8.1296  -10.2300    0.0000 O   0  0  0  0  0  0  0  0  0  0  0  0
   10.2730   -8.1675    0.0000 C   0  0  0  0  0  0  0  0  0  0  0  0
    9.5585   -7.7550    0.0000 C   0  0  0  0  0  0  0  0  0  0  0  0
   10.9875   -7.7550    0.0000 C   0  0  0  0  0  0  0  0  0  0  0  0
   10.9875   -6.9300    0.0000 C   0  0  0  0  0  0  0  0  0  0  0  0
   10.2730   -6.5175    0.0000 C   0  0  0  0  0  0  0  0  0  0  0  0
    9.5585   -6.9300    0.0000 C   0  0  0  0  0  0  0  0  0  0  0  0
   11.7019   -6.5175    0.0000 O   0  0  0  0  0  0  0  0  0  0  0  0
    5.2717   -7.7550    0.0000 O   0  0  0  0  0  0  0  0  0  0  0  0
    6.7006   -6.9300    0.0000 C   0  0  0  0  0  0  0  0  0  0  0  0
    5.2717   -9.4050    0.0000 C   0  0  0  0  0  0  0  0  0  0  0  0
    4.5180   -9.0694    0.0000 O   0  0  0  0  0  0  0  0  0  0  0  0
    3.9660   -9.6825    0.0000 C   0  0  0  0  0  0  0  0  0  0  0  0
    4.3785  -10.3970    0.0000 C   0  0  0  0  0  0  0  0  0  0  0  0
    5.1855  -10.2255    0.0000 C   0  0  0  0  0  0  0  0  0  0  0  0
    5.7986  -10.7775    0.0000 O   0  0  0  0  0  0  0  0  0  0  0  0
    4.0429  -11.1507    0.0000 O   0  0  0  0  0  0  0  0  0  0  0  0
    3.1455   -9.5963    0.0000 C   0  0  0  0  0  0  0  0  0  0  0  0
    2.6606  -10.2637    0.0000 O   0  0  0  0  0  0  0  0  0  0  0  0
    7.4151   -6.5175    0.0000 O   0  0  0  0  0  0  0  0  0  0  0  0
    7.4151   -5.6925    0.0000 C   0  0  0  0  0  0  0  0  0  0  0  0
    6.7006   -5.2800    0.0000 C   0  0  0  0  0  0  0  0  0  0  0  0
    5.9862   -5.6925    0.0000 C   0  0  0  0  0  0  0  0  0  0  0  0
    5.9862   -6.5175    0.0000 C   0  0  0  0  0  0  0  0  0  0  0  0
    5.2717   -6.9300    0.0000 O   0  0  0  0  0  0  0  0  0  0  0  0
    5.2717   -5.2800    0.0000 O   0  0  0  0  0  0  0  0  0  0  0  0
    6.7006   -4.4550    0.0000 O   0  0  0  0  0  0  0  0  0  0  0  0
    8.1296   -5.2800    0.0000 C   0  0  0  0  0  0  0  0  0  0  0  0
    8.1296   -4.4550    0.0000 O   0  0  0  0  0  0  0  0  0  0  0  0
  1  2  2  0  0  0  0
  2  3  1  0  0  0  0
  3  4  2  0  0  0  0
  4  5  1  0  0  0  0
  5  6  2  0  0  0  0
  6  1  1  0  0  0  0
  4  7  1  0  0  0  0
  7  8  1  0  0  0  0
  8  9  2  0  0  0  0
  9 10  1  0  0  0  0
 10  5  1  0  0  0  0
  3 11  1  0  0  0  0
 12  7  2  0  0  0  0
 13 14  2  0  0  0  0
 14  9  1  0  0  0  0
 13 15  1  0  0  0  0
 15 16  2  0  0  0  0
 16 17  1  0  0  0  0
 17 18  2  0  0  0  0
 18 14  1  0  0  0  0
 16 19  1  0  0  0  0
  1 20  1  0  0  0  0
  6 21  1  0  0  0  0
  2 22  1  0  0  0  0
 22 23  1  0  0  0  0
 23 24  1  0  0  0  0
 24 25  1  0  0  0  0
 25 26  1  0  0  0  0
 26 22  1  0  0  0  0
 26 27  1  0  0  0  0
 25 28  1  0  0  0  0
 24 29  1  0  0  0  0
 29 30  1  0  0  0  0
 21 31  1  0  0  0  0
 31 32  1  0  0  0  0
 32 33  1  0  0  0  0
 33 34  1  0  0  0  0
 34 35  1  0  0  0  0
 35 21  1  0  0  0  0
 35 36  1  0  0  0  0
 34 37  1  0  0  0  0
 33 38  1  0  0  0  0
 32 39  1  0  0  0  0
 39 40  1  0  0  0  0
M  END
>  <cdx:fragmentId>
5

$$$$
