98500.cdx
  Mrv1902 05222410262D          

 23 24  0  0  0  0            999 V2000
    6.9736   -8.9089    0.0000 N   0  0  0  0  0  0  0  0  0  0  0  0
    7.6876   -9.3222    0.0000 C   0  0  0  0  0  0  0  0  0  0  0  0
    8.4025   -8.9105    0.0000 C   0  0  0  0  0  0  0  0  0  0  0  0
    8.4034   -8.0855    0.0000 N   0  0  0  0  0  0  0  0  0  0  0  0
    7.6894   -7.6722    0.0000 C   0  0  0  0  0  0  0  0  0  0  0  0
    6.9745   -8.0839    0.0000 C   0  0  0  0  0  0  0  0  0  0  0  0
    7.6868  -10.1472    0.0000 O   0  0  0  0  0  0  0  0  0  0  0  0
    7.6903   -6.8472    0.0000 O   0  0  0  0  0  0  0  0  0  0  0  0
    6.2604   -7.6707    0.0000 C   0  0  0  0  0  0  0  0  0  0  0  0
    9.1166   -9.3237    0.0000 C   0  0  0  0  0  0  0  0  0  0  0  0
    9.1157  -10.1487    0.0000 C   0  0  0  0  0  0  0  0  0  0  0  0
    8.4008  -10.5605    0.0000 C   0  0  0  0  0  0  0  0  0  0  0  0
    9.8297  -10.5620    0.0000 C   0  0  0  0  0  0  0  0  0  0  0  0
    6.2591   -9.3214    0.0000 C   0  0  2  0  0  0  0  0  0  0  0  0
    5.5447   -8.9089    0.0000 O   0  0  0  0  0  0  0  0  0  0  0  0
    4.8302   -9.3214    0.0000 C   0  0  2  0  0  0  0  0  0  0  0  0
    4.8302  -10.1464    0.0000 C   0  0  1  0  0  0  0  0  0  0  0  0
    5.5447  -10.5589    0.0000 C   0  0  2  0  0  0  0  0  0  0  0  0
    6.2591  -10.1464    0.0000 C   0  0  1  0  0  0  0  0  0  0  0  0
    4.1157  -10.5589    0.0000 O   0  0  0  0  0  0  0  0  0  0  0  0
    4.1157   -8.9089    0.0000 C   0  0  0  0  0  0  0  0  0  0  0  0
    5.5447  -11.3839    0.0000 O   0  0  0  0  0  0  0  0  0  0  0  0
    6.9736  -10.5589    0.0000 O   0  0  0  0  0  0  0  0  0  0  0  0
  1  2  1  0  0  0  0
  2  3  1  0  0  0  0
  3  4  1  0  0  0  0
  4  5  1  0  0  0  0
  5  6  1  0  0  0  0
  1  6  1  0  0  0  0
  2  7  2  0  0  0  0
  5  8  2  0  0  0  0
  6  9  1  0  0  0  0
  3 10  1  0  0  0  0
 10 11  1  0  0  0  0
 11 12  1  0  0  0  0
 11 13  1  0  0  0  0
 14  1  1  1  0  0  0
 14 15  1  0  0  0  0
 15 16  1  0  0  0  0
 16 17  1  0  0  0  0
 17 18  1  0  0  0  0
 18 19  1  0  0  0  0
 19 14  1  0  0  0  0
 17 20  1  1  0  0  0
 16 21  1  6  0  0  0
 18 22  1  6  0  0  0
 19 23  1  6  0  0  0
M  END
>  <cdx:fragmentId>
4461

$$$$
