98501.cdx
  Mrv1902 05222410262D          

 16 15  0  0  0  0            999 V2000
   12.1806   -8.3685    0.0000 C   0  0  0  0  0  0  0  0  0  0  0  0
   11.4661   -8.7810    0.0000 C   0  0  0  0  0  0  0  0  0  0  0  0
   10.7516   -8.3685    0.0000 C   0  0  0  0  0  0  0  0  0  0  0  0
   10.0371   -8.7810    0.0000 N   0  0  0  0  0  0  0  0  0  0  0  0
    9.3227   -8.3685    0.0000 C   0  0  0  0  0  0  0  0  0  0  0  0
    8.6082   -8.7810    0.0000 C   0  0  0  0  0  0  0  0  0  0  0  0
    7.8937   -8.3685    0.0000 C   0  0  0  0  0  0  0  0  0  0  0  0
    7.1793   -8.7810    0.0000 C   0  0  0  0  0  0  0  0  0  0  0  0
    6.4648   -8.3685    0.0000 C   0  0  0  0  0  0  0  0  0  0  0  0
    5.7503   -8.7810    0.0000 C   0  0  0  0  0  0  0  0  0  0  0  0
    5.0358   -8.3685    0.0000 C   0  0  0  0  0  0  0  0  0  0  0  0
    4.3214   -8.7810    0.0000 C   0  0  0  0  0  0  0  0  0  0  0  0
   11.4661   -9.6060    0.0000 C   0  0  0  0  0  0  0  0  0  0  0  0
    9.3227   -7.5435    0.0000 O   0  0  0  0  0  0  0  0  0  0  0  0
    3.6228   -8.3421    0.0000 C   0  0  0  0  0  0  0  0  0  0  0  0
    3.6134   -7.5171    0.0000 C   0  0  0  0  0  0  0  0  0  0  0  0
  1  2  1  0  0  0  0
  2  3  1  0  0  0  0
  3  4  1  0  0  0  0
  4  5  1  0  0  0  0
  5  6  1  0  0  0  0
  6  7  2  0  0  0  0
  7  8  1  0  0  0  0
  8  9  2  0  0  0  0
  9 10  1  0  0  0  0
 10 11  1  0  0  0  0
 11 12  1  0  0  0  0
  2 13  1  0  0  0  0
  5 14  2  0  0  0  0
 12 15  2  0  0  0  0
 15 16  1  0  0  0  0
M  END
>  <cdx:fragmentId>
3

$$$$
