98513.cdx
  Mrv1902 05222410272D          

 47 52  0  0  0  0            999 V2000
    8.2590   -6.4900    0.0000 C   0  0  2  0  0  0  0  0  0  0  0  0
    8.9734   -6.0775    0.0000 C   0  0  2  0  0  0  0  0  0  0  0  0
    9.6879   -6.4900    0.0000 C   0  0  0  0  0  0  0  0  0  0  0  0
    9.6879   -7.3150    0.0000 C   0  0  0  0  0  0  0  0  0  0  0  0
    8.9734   -7.7275    0.0000 C   0  0  2  0  0  0  0  0  0  0  0  0
    8.9734   -8.5525    0.0000 C   0  0  0  0  0  0  0  0  0  0  0  0
    8.2590   -8.9650    0.0000 C   0  0  0  0  0  0  0  0  0  0  0  0
    7.5445   -8.5525    0.0000 C   0  0  1  0  0  0  0  0  0  0  0  0
    6.8300   -8.9650    0.0000 C   0  0  2  0  0  0  0  0  0  0  0  0
    6.8300   -9.7900    0.0000 C   0  0  0  0  0  0  0  0  0  0  0  0
    6.1155  -10.2025    0.0000 C   0  0  0  0  0  0  0  0  0  0  0  0
    5.4011   -9.7900    0.0000 C   0  0  1  0  0  0  0  0  0  0  0  0
    4.6866  -10.2025    0.0000 C   0  0  0  0  0  0  0  0  0  0  0  0
    3.9721   -9.7900    0.0000 C   0  0  0  0  0  0  0  0  0  0  0  0
    3.9721   -8.9650    0.0000 C   0  0  1  0  0  0  0  0  0  0  0  0
    4.6866   -8.5525    0.0000 C   0  0  0  0  0  0  0  0  0  0  0  0
    5.4011   -8.9650    0.0000 C   0  0  2  0  0  0  0  0  0  0  0  0
    6.1155   -8.5525    0.0000 C   0  0  1  0  0  0  0  0  0  0  0  0
    6.1155   -7.7275    0.0000 C   0  0  0  0  0  0  0  0  0  0  0  0
    6.8300   -7.3150    0.0000 C   0  0  0  0  0  0  0  0  0  0  0  0
    7.5445   -7.7275    0.0000 C   0  0  0  0  0  0  0  0  0  0  0  0
    8.2590   -7.3150    0.0000 C   0  0  2  0  0  0  0  0  0  0  0  0
    9.6879   -8.1400    0.0000 O   0  0  0  0  0  0  0  0  0  0  0  0
    5.4011   -8.1400    0.0000 C   0  0  0  0  0  0  0  0  0  0  0  0
    5.0991  -10.9170    0.0000 C   0  0  0  0  0  0  0  0  0  0  0  0
    4.2741  -10.9170    0.0000 C   0  0  0  0  0  0  0  0  0  0  0  0
    8.5609   -5.3630    0.0000 C   0  0  0  0  0  0  0  0  0  0  0  0
    9.3859   -5.3630    0.0000 C   0  0  0  0  0  0  0  0  0  0  0  0
    5.4011  -10.6150    0.0000 H   0  0  0  0  0  0  0  0  0  0  0  0
    8.2590   -8.1400    0.0000 H   0  0  0  0  0  0  0  0  0  0  0  0
    3.2577   -8.5525    0.0000 O   0  0  0  0  0  0  0  0  0  0  0  0
    3.2577  -10.2025    0.0000 O   0  0  0  0  0  0  0  0  0  0  0  0
    7.5445   -6.0775    0.0000 O   0  0  0  0  0  0  0  0  0  0  0  0
    8.9775  -10.1932    0.0000 C   0  0  2  0  0  0  0  0  0  0  0  0
    9.6928  -10.6042    0.0000 C   0  0  2  0  0  0  0  0  0  0  0  0
   10.4064  -10.1903    0.0000 C   0  0  1  0  0  0  0  0  0  0  0  0
   10.4047   -9.3653    0.0000 C   0  0  2  0  0  0  0  0  0  0  0  0
    9.6893   -8.9542    0.0000 C   0  0  1  0  0  0  0  0  0  0  0  0
    8.9757   -9.3682    0.0000 O   0  0  0  0  0  0  0  0  0  0  0  0
    8.2639  -10.6072    0.0000 C   0  0  0  0  0  0  0  0  0  0  0  0
   11.1217  -10.6013    0.0000 O   0  0  0  0  0  0  0  0  0  0  0  0
    9.6945  -11.4292    0.0000 O   0  0  0  0  0  0  0  0  0  0  0  0
   11.1183   -8.9513    0.0000 O   0  0  0  0  0  0  0  0  0  0  0  0
    8.2656  -11.4322    0.0000 O   0  0  0  0  0  0  0  0  0  0  0  0
    6.1155   -9.3775    0.0000 H   0  0  0  0  0  0  0  0  0  0  0  0
    6.8300   -8.1400    0.0000 C   0  0  0  0  0  0  0  0  0  0  0  0
    7.5445   -9.3775    0.0000 C   0  0  0  0  0  0  0  0  0  0  0  0
  1  2  1  0  0  0  0
  2  3  1  0  0  0  0
  3  4  1  0  0  0  0
  4  5  1  0  0  0  0
  5  6  1  0  0  0  0
  6  7  1  0  0  0  0
  7  8  1  0  0  0  0
  8  9  1  0  0  0  0
  9 10  1  0  0  0  0
 10 11  1  0  0  0  0
 11 12  1  0  0  0  0
 12 13  1  0  0  0  0
 13 14  1  0  0  0  0
 14 15  1  0  0  0  0
 15 16  1  0  0  0  0
 16 17  1  0  0  0  0
 12 17  1  0  0  0  0
 17 18  1  0  0  0  0
  9 18  1  0  0  0  0
 18 19  1  0  0  0  0
 19 20  1  0  0  0  0
 20 21  2  0  0  0  0
  8 21  1  0  0  0  0
 21 22  1  0  0  0  0
  5 22  1  0  0  0  0
  1 22  1  0  0  0  0
  5 23  1  1  0  0  0
 17 24  1  1  0  0  0
 13 25  1  0  0  0  0
 13 26  1  0  0  0  0
  2 27  1  1  0  0  0
  2 28  1  6  0  0  0
 12 29  1  6  0  0  0
 22 30  1  1  0  0  0
 15 31  1  6  0  0  0
 14 32  1  0  0  0  0
  1 33  1  6  0  0  0
 34 35  1  0  0  0  0
 35 36  1  0  0  0  0
 36 37  1  0  0  0  0
 37 38  1  0  0  0  0
 38 39  1  0  0  0  0
 39 34  1  0  0  0  0
 34 40  1  1  0  0  0
 36 41  1  1  0  0  0
 35 42  1  6  0  0  0
 37 43  1  6  0  0  0
 40 44  1  0  0  0  0
 38 23  1  1  0  0  0
 18 45  1  6  0  0  0
  9 46  1  1  0  0  0
  8 47  1  6  0  0  0
M  END
>  <cdx:fragmentId>
5

$$$$
