98510.cdx
  Mrv1902 05222410282D          

 31 34  0  0  0  0            999 V2000
    3.9718   -8.9200    0.0000 C   0  0  0  0  0  0  0  0  0  0  0  0
    3.9718   -8.0950    0.0000 C   0  0  0  0  0  0  0  0  0  0  0  0
    4.6863   -7.6825    0.0000 O   0  0  0  0  0  0  0  0  0  0  0  0
    5.4007   -8.0950    0.0000 C   0  0  0  0  0  0  0  0  0  0  0  0
    5.4007   -8.9200    0.0000 C   0  0  0  0  0  0  0  0  0  0  0  0
    4.6863   -9.3325    0.0000 C   0  0  0  0  0  0  0  0  0  0  0  0
    6.1152   -7.6825    0.0000 C   0  0  0  0  0  0  0  0  0  0  0  0
    6.8297   -8.0950    0.0000 C   0  0  0  0  0  0  0  0  0  0  0  0
    6.8297   -8.9200    0.0000 C   0  0  0  0  0  0  0  0  0  0  0  0
    6.1152   -9.3325    0.0000 C   0  0  0  0  0  0  0  0  0  0  0  0
    7.5442   -7.6825    0.0000 O   0  0  0  0  0  0  0  0  0  0  0  0
    8.2586   -8.0950    0.0000 C   0  0  0  0  0  0  0  0  0  0  0  0
    8.2586   -8.9200    0.0000 C   0  0  0  0  0  0  0  0  0  0  0  0
    7.5442   -9.3325    0.0000 C   0  0  0  0  0  0  0  0  0  0  0  0
    8.9731   -9.3325    0.0000 C   0  0  0  0  0  0  0  0  0  0  0  0
    3.1468   -8.0950    0.0000 C   0  0  0  0  0  0  0  0  0  0  0  0
    3.7583   -7.2981    0.0000 C   0  0  0  0  0  0  0  0  0  0  0  0
    6.1152  -10.1575    0.0000 O   0  0  0  0  0  0  0  0  0  0  0  0
    6.8297  -10.5700    0.0000 C   0  0  0  0  0  0  0  0  0  0  0  0
    8.9731   -7.6825    0.0000 O   0  0  0  0  0  0  0  0  0  0  0  0
    9.6876   -8.9200    0.0000 C   0  0  0  0  0  0  0  0  0  0  0  0
    8.5606  -10.0470    0.0000 C   0  0  0  0  0  0  0  0  0  0  0  0
    9.3856  -10.0470    0.0000 C   0  0  0  0  0  0  0  0  0  0  0  0
   10.4020   -9.3325    0.0000 C   0  0  0  0  0  0  0  0  0  0  0  0
   11.1165   -8.9200    0.0000 C   0  0  0  0  0  0  0  0  0  0  0  0
    4.6863  -10.1575    0.0000 C   0  0  0  0  0  0  0  0  0  0  0  0
    3.9718  -10.5700    0.0000 C   0  0  0  0  0  0  0  0  0  0  0  0
    3.9718  -11.3950    0.0000 C   0  0  0  0  0  0  0  0  0  0  0  0
    4.6863  -11.8075    0.0000 C   0  0  0  0  0  0  0  0  0  0  0  0
    5.4007  -11.3950    0.0000 C   0  0  0  0  0  0  0  0  0  0  0  0
    5.4007  -10.5700    0.0000 C   0  0  0  0  0  0  0  0  0  0  0  0
  1  2  1  0  0  0  0
  2  3  1  0  0  0  0
  3  4  1  0  0  0  0
  4  5  1  0  0  0  0
  5  6  1  0  0  0  0
  6  1  2  0  0  0  0
  4  7  2  0  0  0  0
  7  8  1  0  0  0  0
  8  9  2  0  0  0  0
  9 10  1  0  0  0  0
 10  5  2  0  0  0  0
  8 11  1  0  0  0  0
 11 12  1  0  0  0  0
 12 13  1  0  0  0  0
 13 14  2  0  0  0  0
 14  9  1  0  0  0  0
 13 15  1  0  0  0  0
  2 16  1  0  0  0  0
  2 17  1  0  0  0  0
 10 18  1  0  0  0  0
 18 19  1  0  0  0  0
 12 20  2  0  0  0  0
 15 21  1  0  0  0  0
 15 22  1  0  0  0  0
 15 23  1  0  0  0  0
 21 24  2  0  0  0  0
 24 25  1  0  0  0  0
  6 26  1  0  0  0  0
 26 27  2  0  0  0  0
 27 28  1  0  0  0  0
 28 29  2  0  0  0  0
 29 30  1  0  0  0  0
 30 31  2  0  0  0  0
 31 26  1  0  0  0  0
M  END
>  <cdx:fragmentId>
5

$$$$
