98516.cdx
  Mrv1902 05222410272D          

 34 36  0  0  0  0            999 V2000
    9.7953   -6.3368    0.0000 C   0  0  0  0  0  0  0  0  0  0  0  0
    9.0808   -6.7493    0.0000 C   0  0  0  0  0  0  0  0  0  0  0  0
    8.3663   -6.3368    0.0000 C   0  0  0  0  0  0  0  0  0  0  0  0
    7.6518   -6.7493    0.0000 C   0  0  0  0  0  0  0  0  0  0  0  0
    7.6518   -7.5743    0.0000 C   0  0  0  0  0  0  0  0  0  0  0  0
    8.3663   -7.9868    0.0000 C   0  0  0  0  0  0  0  0  0  0  0  0
    9.0808   -7.5743    0.0000 C   0  0  0  0  0  0  0  0  0  0  0  0
    9.7953   -5.5118    0.0000 O   0  0  0  0  0  0  0  0  0  0  0  0
   10.5097   -6.7493    0.0000 O   0  0  0  0  0  0  0  0  0  0  0  0
    6.9374   -6.3368    0.0000 O   0  0  0  0  0  0  0  0  0  0  0  0
    8.3663   -5.5118    0.0000 O   0  0  0  0  0  0  0  0  0  0  0  0
    7.6518   -5.0993    0.0000 C   0  0  0  0  0  0  0  0  0  0  0  0
    6.1213   -6.3226    0.0000 C   0  0  1  0  0  0  0  0  0  0  0  0
    5.6989   -7.0313    0.0000 C   0  0  1  0  0  0  0  0  0  0  0  0
    4.8740   -7.0198    0.0000 C   0  0  1  0  0  0  0  0  0  0  0  0
    4.4515   -7.7284    0.0000 O   0  0  0  0  0  0  0  0  0  0  0  0
    4.4715   -6.2996    0.0000 C   0  0  2  0  0  0  0  0  0  0  0  0
    3.6466   -6.2881    0.0000 O   0  0  0  0  0  0  0  0  0  0  0  0
    4.8939   -5.5909    0.0000 C   0  0  2  0  0  0  0  0  0  0  0  0
    5.7188   -5.6025    0.0000 O   0  0  0  0  0  0  0  0  0  0  0  0
    4.4914   -4.8708    0.0000 C   0  0  0  0  0  0  0  0  0  0  0  0
    3.6665   -4.8593    0.0000 O   0  0  0  0  0  0  0  0  0  0  0  0
    5.5128  -11.1848    0.0000 O   0  0  0  0  0  0  0  0  0  0  0  0
    5.0372  -10.5107    0.0000 C   0  0  0  0  0  0  0  0  0  0  0  0
    4.8574   -8.5348    0.0000 O   0  0  0  0  0  0  0  0  0  0  0  0
    4.6746   -9.3393    0.0000 C   0  0  0  0  0  0  0  0  0  0  0  0
    5.8588  -10.4359    0.0000 O   0  0  0  0  0  0  0  0  0  0  0  0
    5.3832   -9.7618    0.0000 C   0  0  2  0  0  0  0  0  0  0  0  0
    6.8085   -9.4011    0.0000 O   0  0  0  0  0  0  0  0  0  0  0  0
    6.0040   -9.2183    0.0000 C   0  0  1  0  0  0  0  0  0  0  0  0
    5.6790   -8.4601    0.0000 C   0  0  2  0  0  0  0  0  0  0  0  0
    6.1014   -7.7514    0.0000 O   0  0  0  0  0  0  0  0  0  0  0  0
    6.9374   -7.9868    0.0000 O   0  0  0  0  0  0  0  0  0  0  0  0
    6.9374   -8.8118    0.0000 C   0  0  0  0  0  0  0  0  0  0  0  0
  1  2  1  0  0  0  0
  2  3  1  0  0  0  0
  3  4  2  0  0  0  0
  4  5  1  0  0  0  0
  5  6  2  0  0  0  0
  6  7  1  0  0  0  0
  2  7  2  0  0  0  0
  1  8  2  0  0  0  0
  1  9  1  0  0  0  0
  4 10  1  0  0  0  0
 11 12  1  0  0  0  0
  3 11  1  0  0  0  0
 31 32  1  1  0  0  0
 31 25  1  0  0  0  0
 24 23  1  0  0  0  0
 28 24  1  0  0  0  0
 26 25  1  0  0  0  0
 28 26  1  0  0  0  0
 28 27  1  6  0  0  0
 30 28  1  0  0  0  0
 30 29  1  6  0  0  0
 31 30  1  0  0  0  0
 13 14  1  0  0  0  0
 14 32  1  6  0  0  0
 14 15  1  0  0  0  0
 15 16  1  1  0  0  0
 15 17  1  0  0  0  0
 17 18  1  6  0  0  0
 17 19  1  0  0  0  0
 19 20  1  0  0  0  0
 19 21  1  1  0  0  0
 21 22  1  0  0  0  0
 13 20  1  0  0  0  0
  5 33  1  0  0  0  0
 33 34  1  0  0  0  0
 13 10  1  1  0  0  0
M  END
>  <cdx:fragmentId>
43

$$$$
