98511.cdx
  Mrv1902 05222410282D          

 55 59  0  0  0  0            999 V2000
    7.0174   -9.1025    0.0000 C   0  0  2  0  0  0  0  0  0  0  0  0
    7.0174   -9.9275    0.0000 C   0  0  2  0  0  0  0  0  0  0  0  0
    7.7319  -10.3400    0.0000 C   0  0  1  0  0  0  0  0  0  0  0  0
    8.4464   -9.9275    0.0000 C   0  0  2  0  0  0  0  0  0  0  0  0
    8.4464   -9.1025    0.0000 C   0  0  1  0  0  0  0  0  0  0  0  0
    7.7319   -8.6900    0.0000 O   0  0  0  0  0  0  0  0  0  0  0  0
    9.1608   -8.6900    0.0000 O   0  0  0  0  0  0  0  0  0  0  0  0
    6.3030   -8.6900    0.0000 C   0  0  0  0  0  0  0  0  0  0  0  0
    7.7319  -11.1650    0.0000 O   0  0  0  0  0  0  0  0  0  0  0  0
    6.3030  -10.3400    0.0000 O   0  0  0  0  0  0  0  0  0  0  0  0
    9.1608  -10.3400    0.0000 O   0  0  0  0  0  0  0  0  0  0  0  0
    6.3030   -7.8650    0.0000 O   0  0  0  0  0  0  0  0  0  0  0  0
    5.5885   -7.4525    0.0000 C   0  0  2  0  0  0  0  0  0  0  0  0
    5.5885   -6.6275    0.0000 O   0  0  0  0  0  0  0  0  0  0  0  0
    4.8740   -6.2150    0.0000 C   0  0  1  0  0  0  0  0  0  0  0  0
    4.1595   -6.6275    0.0000 C   0  0  2  0  0  0  0  0  0  0  0  0
    4.1595   -7.4525    0.0000 C   0  0  1  0  0  0  0  0  0  0  0  0
    4.8740   -7.8650    0.0000 C   0  0  1  0  0  0  0  0  0  0  0  0
    3.4451   -7.8650    0.0000 O   0  0  0  0  0  0  0  0  0  0  0  0
    4.8740   -5.3900    0.0000 C   0  0  0  0  0  0  0  0  0  0  0  0
    3.4451   -6.2150    0.0000 O   0  0  0  0  0  0  0  0  0  0  0  0
    4.8740   -8.6900    0.0000 O   0  0  0  0  0  0  0  0  0  0  0  0
    4.1595   -4.9775    0.0000 O   0  0  0  0  0  0  0  0  0  0  0  0
    5.5885   -9.9275    0.0000 C   0  0  0  0  0  0  0  0  0  0  0  0
    4.8740  -10.3400    0.0000 C   0  0  0  0  0  0  0  0  0  0  0  0
    5.5885   -9.1025    0.0000 O   0  0  0  0  0  0  0  0  0  0  0  0
    4.1595   -9.9275    0.0000 C   0  0  0  0  0  0  0  0  0  0  0  0
    3.4451  -10.3400    0.0000 C   0  0  0  0  0  0  0  0  0  0  0  0
    2.7306   -9.9275    0.0000 C   0  0  0  0  0  0  0  0  0  0  0  0
    2.0161  -10.3400    0.0000 C   0  0  0  0  0  0  0  0  0  0  0  0
    2.0161  -11.1650    0.0000 C   0  0  0  0  0  0  0  0  0  0  0  0
    2.7306  -11.5775    0.0000 C   0  0  0  0  0  0  0  0  0  0  0  0
    3.4451  -11.1650    0.0000 C   0  0  0  0  0  0  0  0  0  0  0  0
    1.3017   -9.9275    0.0000 O   0  0  0  0  0  0  0  0  0  0  0  0
    1.3017  -11.5775    0.0000 O   0  0  0  0  0  0  0  0  0  0  0  0
    9.8753   -9.1025    0.0000 C   0  0  0  0  0  0  0  0  0  0  0  0
   10.5898   -8.6900    0.0000 C   0  0  0  0  0  0  0  0  0  0  0  0
   11.3043   -9.1025    0.0000 C   0  0  0  0  0  0  0  0  0  0  0  0
   11.3043   -9.9275    0.0000 C   0  0  0  0  0  0  0  0  0  0  0  0
   12.0187  -10.3400    0.0000 C   0  0  0  0  0  0  0  0  0  0  0  0
   12.7332   -9.9275    0.0000 C   0  0  0  0  0  0  0  0  0  0  0  0
   12.7332   -9.1025    0.0000 C   0  0  0  0  0  0  0  0  0  0  0  0
   12.0187   -8.6900    0.0000 C   0  0  0  0  0  0  0  0  0  0  0  0
   13.4477   -8.6900    0.0000 O   0  0  0  0  0  0  0  0  0  0  0  0
   13.4477  -10.3400    0.0000 O   0  0  0  0  0  0  0  0  0  0  0  0
    7.0174  -11.5775    0.0000 C   0  0  2  0  0  0  0  0  0  0  0  0
    6.3030  -11.1650    0.0000 O   0  0  0  0  0  0  0  0  0  0  0  0
    5.5885  -11.5775    0.0000 C   0  0  2  0  0  0  0  0  0  0  0  0
    5.5885  -12.4025    0.0000 C   0  0  1  0  0  0  0  0  0  0  0  0
    6.3030  -12.8150    0.0000 C   0  0  2  0  0  0  0  0  0  0  0  0
    7.0174  -12.4025    0.0000 C   0  0  1  0  0  0  0  0  0  0  0  0
    4.8740  -12.8150    0.0000 O   0  0  0  0  0  0  0  0  0  0  0  0
    6.3030  -13.6400    0.0000 O   0  0  0  0  0  0  0  0  0  0  0  0
    7.7319  -12.8150    0.0000 O   0  0  0  0  0  0  0  0  0  0  0  0
    4.8740  -11.1650    0.0000 C   0  0  0  0  0  0  0  0  0  0  0  0
  1  2  1  0  0  0  0
  2  3  1  0  0  0  0
  3  4  1  0  0  0  0
  4  5  1  0  0  0  0
  5  6  1  0  0  0  0
  6  1  1  0  0  0  0
  5  7  1  1  0  0  0
  1  8  1  1  0  0  0
  3  9  1  1  0  0  0
  2 10  1  6  0  0  0
  4 11  1  6  0  0  0
  8 12  1  0  0  0  0
 13 12  1  1  0  0  0
 13 14  1  0  0  0  0
 14 15  1  0  0  0  0
 15 16  1  0  0  0  0
 16 17  1  0  0  0  0
 17 18  1  0  0  0  0
 18 13  1  0  0  0  0
 17 19  1  1  0  0  0
 15 20  1  1  0  0  0
 16 21  1  6  0  0  0
 18 22  1  6  0  0  0
 20 23  1  0  0  0  0
 10 24  1  0  0  0  0
 24 25  1  0  0  0  0
 24 26  2  0  0  0  0
 25 27  2  0  0  0  0
 27 28  1  0  0  0  0
 28 29  2  0  0  0  0
 29 30  1  0  0  0  0
 30 31  2  0  0  0  0
 31 32  1  0  0  0  0
 32 33  2  0  0  0  0
 33 28  1  0  0  0  0
 30 34  1  0  0  0  0
 31 35  1  0  0  0  0
  7 36  1  0  0  0  0
 36 37  1  0  0  0  0
 37 38  1  0  0  0  0
 38 39  2  0  0  0  0
 39 40  1  0  0  0  0
 40 41  2  0  0  0  0
 41 42  1  0  0  0  0
 42 43  2  0  0  0  0
 43 38  1  0  0  0  0
 42 44  1  0  0  0  0
 41 45  1  0  0  0  0
 46  9  1  1  0  0  0
 46 47  1  0  0  0  0
 47 48  1  0  0  0  0
 48 49  1  0  0  0  0
 49 50  1  0  0  0  0
 50 51  1  0  0  0  0
 51 46  1  0  0  0  0
 49 52  1  1  0  0  0
 50 53  1  6  0  0  0
 51 54  1  6  0  0  0
 48 55  1  6  0  0  0
M  END
>  <cdx:fragmentId>
5

$$$$
