98517.cdx
  Mrv1902 05222410272D          

 31 33  0  0  0  0            999 V2000
    9.3444   -6.1126    0.0000 C   0  0  0  0  0  0  0  0  0  0  0  0
    9.3449   -6.9376    0.0000 C   0  0  0  0  0  0  0  0  0  0  0  0
    8.6307   -7.3506    0.0000 C   0  0  0  0  0  0  0  0  0  0  0  0
    8.6313   -8.1756    0.0000 C   0  0  0  0  0  0  0  0  0  0  0  0
    9.3460   -8.5876    0.0000 C   0  0  0  0  0  0  0  0  0  0  0  0
   10.0602   -8.1747    0.0000 C   0  0  0  0  0  0  0  0  0  0  0  0
   10.0597   -7.3497    0.0000 C   0  0  0  0  0  0  0  0  0  0  0  0
    8.6297   -5.7006    0.0000 O   0  0  0  0  0  0  0  0  0  0  0  0
   10.0586   -5.6997    0.0000 O   0  0  0  0  0  0  0  0  0  0  0  0
   10.7739   -6.9367    0.0000 O   0  0  0  0  0  0  0  0  0  0  0  0
    7.9160   -6.9386    0.0000 O   0  0  0  0  0  0  0  0  0  0  0  0
    7.0804   -6.9317    0.0000 C   0  0  1  0  0  0  0  0  0  0  0  0
    6.6607   -7.6420    0.0000 C   0  0  1  0  0  0  0  0  0  0  0  0
    5.8358   -7.6338    0.0000 C   0  0  1  0  0  0  0  0  0  0  0  0
    5.4161   -8.3440    0.0000 O   0  0  0  0  0  0  0  0  0  0  0  0
    5.4304   -6.9152    0.0000 C   0  0  2  0  0  0  0  0  0  0  0  0
    4.6055   -6.9069    0.0000 O   0  0  0  0  0  0  0  0  0  0  0  0
    5.8501   -6.2049    0.0000 C   0  0  2  0  0  0  0  0  0  0  0  0
    6.6751   -6.2132    0.0000 O   0  0  0  0  0  0  0  0  0  0  0  0
    5.4448   -5.4863    0.0000 C   0  0  0  0  0  0  0  0  0  0  0  0
    4.6198   -5.4780    0.0000 O   0  0  0  0  0  0  0  0  0  0  0  0
    6.4909  -11.7963    0.0000 O   0  0  0  0  0  0  0  0  0  0  0  0
    6.0127  -11.1240    0.0000 C   0  0  0  0  0  0  0  0  0  0  0  0
    5.8251   -9.1489    0.0000 O   0  0  0  0  0  0  0  0  0  0  0  0
    5.6455   -9.9541    0.0000 C   0  0  0  0  0  0  0  0  0  0  0  0
    6.8340  -11.0460    0.0000 O   0  0  0  0  0  0  0  0  0  0  0  0
    6.3558  -10.3738    0.0000 C   0  0  2  0  0  0  0  0  0  0  0  0
    7.7796  -10.0075    0.0000 O   0  0  0  0  0  0  0  0  0  0  0  0
    6.9744   -9.8279    0.0000 C   0  0  1  0  0  0  0  0  0  0  0  0
    6.6464   -9.0709    0.0000 C   0  0  2  0  0  0  0  0  0  0  0  0
    7.0660   -8.3606    0.0000 O   0  0  0  0  0  0  0  0  0  0  0  0
  1  2  1  0  0  0  0
  2  3  1  0  0  0  0
  3  4  2  0  0  0  0
  4  5  1  0  0  0  0
  5  6  2  0  0  0  0
  6  7  1  0  0  0  0
  2  7  2  0  0  0  0
  1  8  2  0  0  0  0
  1  9  1  0  0  0  0
  7 10  1  0  0  0  0
  3 11  1  0  0  0  0
 30 31  1  1  0  0  0
 30 24  1  0  0  0  0
 23 22  1  0  0  0  0
 27 23  1  0  0  0  0
 25 24  1  0  0  0  0
 27 25  1  0  0  0  0
 27 26  1  6  0  0  0
 29 27  1  0  0  0  0
 29 28  1  6  0  0  0
 30 29  1  0  0  0  0
 12 13  1  0  0  0  0
 13 31  1  6  0  0  0
 13 14  1  0  0  0  0
 14 15  1  1  0  0  0
 14 16  1  0  0  0  0
 16 17  1  6  0  0  0
 16 18  1  0  0  0  0
 18 19  1  0  0  0  0
 18 20  1  1  0  0  0
 20 21  1  0  0  0  0
 12 19  1  0  0  0  0
 12 11  1  1  0  0  0
M  END
>  <cdx:fragmentId>
43

$$$$
