98535.cdx
  Mrv1902 05222410182D          

 23 24  0  0  0  0            999 V2000
    7.4994   -7.4335    0.0000 O   0  0  0  0  0  0  0  0  0  0  0  0
    8.2138   -7.8460    0.0000 C   0  0  1  0  0  0  0  0  0  0  0  0
    8.9283   -7.4335    0.0000 C   0  0  2  0  0  0  0  0  0  0  0  0
    8.9283   -6.6085    0.0000 O   0  0  0  0  0  0  0  0  0  0  0  0
    9.6428   -7.8460    0.0000 C   0  0  2  0  0  0  0  0  0  0  0  0
    9.6428   -8.6710    0.0000 C   0  0  2  0  0  0  0  0  0  0  0  0
   10.3572   -9.0835    0.0000 O   0  0  0  0  0  0  0  0  0  0  0  0
    8.9283   -9.0835    0.0000 C   0  0  2  0  0  0  0  0  0  0  0  0
    8.2138   -8.6710    0.0000 O   0  0  0  0  0  0  0  0  0  0  0  0
    8.9283   -9.9085    0.0000 C   0  0  0  0  0  0  0  0  0  0  0  0
    9.6428  -10.3210    0.0000 O   0  0  0  0  0  0  0  0  0  0  0  0
   10.3572   -7.4335    0.0000 N   0  0  0  0  0  0  0  0  0  0  0  0
    6.7849   -7.8460    0.0000 C   0  0  2  0  0  0  0  0  0  0  0  0
    6.7849   -8.6710    0.0000 C   0  0  2  0  0  0  0  0  0  0  0  0
    7.4994   -9.0835    0.0000 O   0  0  0  0  0  0  0  0  0  0  0  0
    6.0704   -9.0835    0.0000 C   0  0  1  0  0  0  0  0  0  0  0  0
    6.0704   -9.9085    0.0000 O   0  0  0  0  0  0  0  0  0  0  0  0
    5.3559   -8.6710    0.0000 C   0  0  2  0  0  0  0  0  0  0  0  0
    4.6415   -9.0835    0.0000 O   0  0  0  0  0  0  0  0  0  0  0  0
    5.3559   -7.8460    0.0000 C   0  0  2  0  0  0  0  0  0  0  0  0
    6.0704   -7.4335    0.0000 O   0  0  0  0  0  0  0  0  0  0  0  0
    4.6415   -7.4335    0.0000 C   0  0  0  0  0  0  0  0  0  0  0  0
    3.9270   -7.8460    0.0000 O   0  0  0  0  0  0  0  0  0  0  0  0
  2  1  1  1  0  0  0
  2  3  1  0  0  0  0
  3  4  1  6  0  0  0
  3  5  1  0  0  0  0
  5  6  1  0  0  0  0
  6  7  1  6  0  0  0
  6  8  1  0  0  0  0
  8  9  1  0  0  0  0
  8 10  1  1  0  0  0
 10 11  1  0  0  0  0
  2  9  1  0  0  0  0
  5 12  1  1  0  0  0
 13 14  1  0  0  0  0
 14 15  1  6  0  0  0
 14 16  1  0  0  0  0
 16 17  1  1  0  0  0
 16 18  1  0  0  0  0
 18 19  1  6  0  0  0
 18 20  1  0  0  0  0
 20 21  1  0  0  0  0
 20 22  1  1  0  0  0
 22 23  1  0  0  0  0
 13 21  1  0  0  0  0
 13  1  1  6  0  0  0
M  END
>  <cdx:fragmentId>
3

$$$$
