98533.cdx
  Mrv1902 05222410192D          

 25 27  0  0  0  0            999 V2000
    4.2736   -7.2806    0.0000 C   0  0  0  0  0  0  0  0  0  0  0  0
    4.2736   -8.1056    0.0000 C   0  0  0  0  0  0  0  0  0  0  0  0
    4.9880   -8.5181    0.0000 C   0  0  0  0  0  0  0  0  0  0  0  0
    5.7025   -8.1056    0.0000 C   0  0  0  0  0  0  0  0  0  0  0  0
    5.7025   -7.2806    0.0000 C   0  0  0  0  0  0  0  0  0  0  0  0
    4.9880   -6.8681    0.0000 C   0  0  0  0  0  0  0  0  0  0  0  0
    6.4170   -8.5181    0.0000 C   0  0  0  0  0  0  0  0  0  0  0  0
    7.1314   -8.1056    0.0000 C   0  0  1  0  0  0  0  0  0  0  0  0
    7.1314   -7.2806    0.0000 C   0  0  0  0  0  0  0  0  0  0  0  0
    6.4170   -6.8681    0.0000 O   0  0  0  0  0  0  0  0  0  0  0  0
    7.8459   -8.5181    0.0000 C   0  0  0  0  0  0  0  0  0  0  0  0
    8.5604   -8.1056    0.0000 C   0  0  0  0  0  0  0  0  0  0  0  0
    8.5604   -7.2806    0.0000 C   0  0  0  0  0  0  0  0  0  0  0  0
    9.2749   -8.5181    0.0000 C   0  0  0  0  0  0  0  0  0  0  0  0
    9.9893   -8.1056    0.0000 C   0  0  0  0  0  0  0  0  0  0  0  0
    9.9893   -7.2806    0.0000 C   0  0  0  0  0  0  0  0  0  0  0  0
    9.2749   -6.8681    0.0000 C   0  0  0  0  0  0  0  0  0  0  0  0
    3.5591   -6.8681    0.0000 O   0  0  0  0  0  0  0  0  0  0  0  0
    4.9880   -9.3431    0.0000 O   0  0  0  0  0  0  0  0  0  0  0  0
    6.4170   -9.3431    0.0000 O   0  0  0  0  0  0  0  0  0  0  0  0
   10.7038   -6.8681    0.0000 O   0  0  0  0  0  0  0  0  0  0  0  0
    3.5591   -8.5181    0.0000 C   0  0  0  0  0  0  0  0  0  0  0  0
    4.9880   -6.0431    0.0000 O   0  0  0  0  0  0  0  0  0  0  0  0
    4.2736   -5.6306    0.0000 C   0  0  0  0  0  0  0  0  0  0  0  0
   11.4183   -7.2806    0.0000 C   0  0  0  0  0  0  0  0  0  0  0  0
  1  2  2  0  0  0  0
  2  3  1  0  0  0  0
  3  4  2  0  0  0  0
  4  5  1  0  0  0  0
  5  6  2  0  0  0  0
  6  1  1  0  0  0  0
  4  7  1  0  0  0  0
  7  8  1  0  0  0  0
  8  9  1  0  0  0  0
  9 10  1  0  0  0  0
 10  5  1  0  0  0  0
  8 11  1  1  0  0  0
 11 12  1  0  0  0  0
 12 13  2  0  0  0  0
 12 14  1  0  0  0  0
 14 15  2  0  0  0  0
 15 16  1  0  0  0  0
 16 17  2  0  0  0  0
 17 13  1  0  0  0  0
  1 18  1  0  0  0  0
  3 19  1  0  0  0  0
  7 20  2  0  0  0  0
 16 21  1  0  0  0  0
  2 22  1  0  0  0  0
  6 23  1  0  0  0  0
 23 24  1  0  0  0  0
 21 25  1  0  0  0  0
M  END
>  <cdx:fragmentId>
5

$$$$
