98534.cdx
  Mrv1902 05222410182D          

 30 32  0  0  0  0            999 V2000
    1.3869   -8.2390    0.0000 O   0  0  0  0  0  0  0  0  0  0  0  0
    2.0587   -7.7601    0.0000 C   0  0  0  0  0  0  0  0  0  0  0  0
    2.8093   -8.1023    0.0000 C   0  0  1  0  0  0  0  0  0  0  0  0
    2.1375   -8.5813    0.0000 O   0  0  0  0  0  0  0  0  0  0  0  0
    3.2281   -7.3916    0.0000 C   0  0  0  0  0  0  0  0  0  0  0  0
    4.0335   -7.5703    0.0000 O   0  0  0  0  0  0  0  0  0  0  0  0
    4.1125   -8.3915    0.0000 C   0  0  2  0  0  0  0  0  0  0  0  0
    3.3558   -8.7203    0.0000 C   0  0  2  0  0  0  0  0  0  0  0  0
    3.1771   -9.5257    0.0000 O   0  0  0  0  0  0  0  0  0  0  0  0
    4.8232   -8.8104    0.0000 O   0  0  0  0  0  0  0  0  0  0  0  0
    5.5413   -8.4043    0.0000 C   0  0  0  0  0  0  0  0  0  0  0  0
    6.2521   -8.8231    0.0000 C   0  0  1  0  0  0  0  0  0  0  0  0
    6.9702   -8.4170    0.0000 O   0  0  0  0  0  0  0  0  0  0  0  0
    7.6810   -8.8359    0.0000 C   0  0  1  0  0  0  0  0  0  0  0  0
    8.3991   -8.4298    0.0000 O   0  0  0  0  0  0  0  0  0  0  0  0
    9.1099   -8.8487    0.0000 C   0  0  0  0  0  0  0  0  0  0  0  0
    9.8280   -8.4425    0.0000 C   0  0  0  0  0  0  0  0  0  0  0  0
   10.5388   -8.8614    0.0000 C   0  0  0  0  0  0  0  0  0  0  0  0
   11.2569   -8.4553    0.0000 C   0  0  0  0  0  0  0  0  0  0  0  0
   11.9677   -8.8742    0.0000 C   0  0  0  0  0  0  0  0  0  0  0  0
   11.9603   -9.6991    0.0000 C   0  0  0  0  0  0  0  0  0  0  0  0
   11.2421  -10.1052    0.0000 C   0  0  0  0  0  0  0  0  0  0  0  0
   10.5314   -9.6864    0.0000 C   0  0  0  0  0  0  0  0  0  0  0  0
   12.6710  -10.1180    0.0000 O   0  0  0  0  0  0  0  0  0  0  0  0
    7.6736   -9.6609    0.0000 C   0  0  1  0  0  0  0  0  0  0  0  0
    6.9555  -10.0670    0.0000 C   0  0  2  0  0  0  0  0  0  0  0  0
    6.2448   -9.6481    0.0000 C   0  0  2  0  0  0  0  0  0  0  0  0
    5.5266  -10.0542    0.0000 O   0  0  0  0  0  0  0  0  0  0  0  0
    6.9481  -10.8919    0.0000 O   0  0  0  0  0  0  0  0  0  0  0  0
    8.3844  -10.0797    0.0000 O   0  0  0  0  0  0  0  0  0  0  0  0
  1  2  1  0  0  0  0
  3  2  1  1  0  0  0
  3  4  1  6  0  0  0
  3  5  1  0  0  0  0
  5  6  1  0  0  0  0
  6  7  1  0  0  0  0
  7  8  1  0  0  0  0
  3  8  1  0  0  0  0
  8  9  1  6  0  0  0
  7 10  1  1  0  0  0
 10 11  1  0  0  0  0
 12 11  1  1  0  0  0
 12 13  1  0  0  0  0
 13 14  1  0  0  0  0
 14 15  1  1  0  0  0
 15 16  1  0  0  0  0
 16 17  1  0  0  0  0
 17 18  1  0  0  0  0
 18 19  1  0  0  0  0
 19 20  2  0  0  0  0
 20 21  1  0  0  0  0
 21 22  2  0  0  0  0
 22 23  1  0  0  0  0
 18 23  2  0  0  0  0
 21 24  1  0  0  0  0
 14 25  1  0  0  0  0
 25 26  1  0  0  0  0
 26 27  1  0  0  0  0
 12 27  1  0  0  0  0
 27 28  1  6  0  0  0
 26 29  1  1  0  0  0
 25 30  1  6  0  0  0
M  END
>  <cdx:fragmentId>
17736

$$$$
