98543.cdx
  Mrv1902 05222410212D          

 34 35  0  0  0  0            999 V2000
    9.7630   -9.4891    0.0000 C   0  0  0  0  0  0  0  0  0  0  0  0
   10.4775   -9.0766    0.0000 C   0  0  0  0  0  0  0  0  0  0  0  0
   11.1920   -9.4891    0.0000 C   0  0  0  0  0  0  0  0  0  0  0  0
    9.0486   -9.0766    0.0000 C   0  0  0  0  0  0  0  0  0  0  0  0
    9.0486   -8.2516    0.0000 O   0  0  0  0  0  0  0  0  0  0  0  0
    8.3341   -9.4891    0.0000 O   0  0  0  0  0  0  0  0  0  0  0  0
   11.9064   -9.0766    0.0000 C   0  0  0  0  0  0  0  0  0  0  0  0
   11.9064   -8.2516    0.0000 O   0  0  0  0  0  0  0  0  0  0  0  0
   12.6209   -9.4891    0.0000 O   0  0  0  0  0  0  0  0  0  0  0  0
   10.4775   -9.9016    0.0000 O   0  0  0  0  0  0  0  0  0  0  0  0
    7.6196   -9.0766    0.0000 C   0  0  0  0  0  0  0  0  0  0  0  0
    6.9051   -9.4891    0.0000 C   0  0  0  0  0  0  0  0  0  0  0  0
    6.9051  -10.3141    0.0000 C   0  0  0  0  0  0  0  0  0  0  0  0
    6.1907  -10.7266    0.0000 C   0  0  0  0  0  0  0  0  0  0  0  0
    5.4762  -10.3141    0.0000 C   0  0  0  0  0  0  0  0  0  0  0  0
    5.4762   -9.4891    0.0000 C   0  0  0  0  0  0  0  0  0  0  0  0
    6.1907   -9.0766    0.0000 C   0  0  0  0  0  0  0  0  0  0  0  0
    3.3434  -11.5697    0.0000 O   0  0  0  0  0  0  0  0  0  0  0  0
    1.9041  -10.7630    0.0000 O   0  0  0  0  0  0  0  0  0  0  0  0
    1.8831   -9.1131    0.0000 O   0  0  0  0  0  0  0  0  0  0  0  0
    2.5817   -7.8666    0.0000 O   0  0  0  0  0  0  0  0  0  0  0  0
    3.3014   -8.2700    0.0000 C   0  0  0  0  0  0  0  0  0  0  0  0
    3.3119   -9.0949    0.0000 C   0  0  2  0  0  0  0  0  0  0  0  0
    2.6027   -9.5165    0.0000 C   0  0  2  0  0  0  0  0  0  0  0  0
    2.6132  -10.3414    0.0000 C   0  0  1  0  0  0  0  0  0  0  0  0
    3.3329  -10.7448    0.0000 C   0  0  2  0  0  0  0  0  0  0  0  0
    4.0421  -10.3232    0.0000 C   0  0  1  0  0  0  0  0  0  0  0  0
    4.0316   -9.4983    0.0000 O   0  0  0  0  0  0  0  0  0  0  0  0
    4.7617  -10.7266    0.0000 O   0  0  0  0  0  0  0  0  0  0  0  0
    9.7630   -7.8391    0.0000 O   0  0  0  0  0  0  0  0  0  0  0  0
   11.1920   -7.8391    0.0000 O   0  0  0  0  0  0  0  0  0  0  0  0
   10.4775   -8.2516    0.0000 C   0  0  0  0  0  0  0  0  0  0  0  0
    9.7630   -7.0141    0.0000 C   0  0  0  0  0  0  0  0  0  0  0  0
   13.3354   -9.0766    0.0000 C   0  0  0  0  0  0  0  0  0  0  0  0
 27 29  1  1  0  0  0
 26 18  1  6  0  0  0
 25 19  1  1  0  0  0
 24 20  1  6  0  0  0
 23 22  1  1  0  0  0
 22 21  1  0  0  0  0
 28 23  1  0  0  0  0
 24 23  1  0  0  0  0
 25 24  1  0  0  0  0
 26 25  1  0  0  0  0
 27 26  1  0  0  0  0
 28 27  1  0  0  0  0
 32 30  1  0  0  0  0
  1  2  1  0  0  0  0
  2  3  1  0  0  0  0
  4  5  2  0  0  0  0
  4  6  1  0  0  0  0
  1  4  1  0  0  0  0
 32 31  2  0  0  0  0
  2 32  1  0  0  0  0
  7  8  2  0  0  0  0
  7  9  1  0  0  0  0
  3  7  1  0  0  0  0
  2 10  1  0  0  0  0
 12 13  1  0  0  0  0
 13 14  2  0  0  0  0
 14 15  1  0  0  0  0
 15 16  2  0  0  0  0
 16 17  1  0  0  0  0
 12 17  2  0  0  0  0
 15 29  1  0  0  0  0
 11 12  1  0  0  0  0
  6 11  1  0  0  0  0
 30 33  1  0  0  0  0
  9 34  1  0  0  0  0
M  END
>  <cdx:fragmentId>
3377

$$$$
