98545.cdx
  Mrv1902 05222410222D          

 56 59  0  0  0  0            999 V2000
   18.6730   -8.4991    0.0000 C   0  0  0  0  0  0  0  0  0  0  0  0
   19.3875   -8.0866    0.0000 C   0  0  0  0  0  0  0  0  0  0  0  0
   20.1020   -8.4991    0.0000 C   0  0  0  0  0  0  0  0  0  0  0  0
   17.9586   -8.0866    0.0000 C   0  0  0  0  0  0  0  0  0  0  0  0
   17.9586   -7.2616    0.0000 O   0  0  0  0  0  0  0  0  0  0  0  0
   17.2441   -8.4991    0.0000 O   0  0  0  0  0  0  0  0  0  0  0  0
   20.8164   -8.0866    0.0000 C   0  0  0  0  0  0  0  0  0  0  0  0
   20.8164   -7.2616    0.0000 O   0  0  0  0  0  0  0  0  0  0  0  0
   21.5309   -8.4991    0.0000 O   0  0  0  0  0  0  0  0  0  0  0  0
   19.3875   -8.9116    0.0000 O   0  0  0  0  0  0  0  0  0  0  0  0
   16.5296   -8.0866    0.0000 C   0  0  0  0  0  0  0  0  0  0  0  0
   15.8151   -8.4991    0.0000 C   0  0  0  0  0  0  0  0  0  0  0  0
   15.8151   -9.3241    0.0000 C   0  0  0  0  0  0  0  0  0  0  0  0
   15.1007   -9.7366    0.0000 C   0  0  0  0  0  0  0  0  0  0  0  0
   14.3862   -9.3241    0.0000 C   0  0  0  0  0  0  0  0  0  0  0  0
   14.3862   -8.4991    0.0000 C   0  0  0  0  0  0  0  0  0  0  0  0
   15.1007   -8.0866    0.0000 C   0  0  0  0  0  0  0  0  0  0  0  0
   12.2534  -10.5797    0.0000 O   0  0  0  0  0  0  0  0  0  0  0  0
   10.8141   -9.7730    0.0000 O   0  0  0  0  0  0  0  0  0  0  0  0
   10.7931   -8.1231    0.0000 O   0  0  0  0  0  0  0  0  0  0  0  0
   11.4917   -6.8766    0.0000 O   0  0  0  0  0  0  0  0  0  0  0  0
   12.2114   -7.2800    0.0000 C   0  0  0  0  0  0  0  0  0  0  0  0
   12.2219   -8.1049    0.0000 C   0  0  2  0  0  0  0  0  0  0  0  0
   11.5127   -8.5265    0.0000 C   0  0  2  0  0  0  0  0  0  0  0  0
   11.5232   -9.3514    0.0000 C   0  0  1  0  0  0  0  0  0  0  0  0
   12.2429   -9.7548    0.0000 C   0  0  2  0  0  0  0  0  0  0  0  0
   12.9521   -9.3332    0.0000 C   0  0  1  0  0  0  0  0  0  0  0  0
   12.9416   -8.5083    0.0000 O   0  0  0  0  0  0  0  0  0  0  0  0
   13.6717   -9.7366    0.0000 O   0  0  0  0  0  0  0  0  0  0  0  0
   18.6730   -6.8491    0.0000 O   0  0  0  0  0  0  0  0  0  0  0  0
   20.1020   -6.8491    0.0000 O   0  0  0  0  0  0  0  0  0  0  0  0
   19.3875   -7.2616    0.0000 C   0  0  0  0  0  0  0  0  0  0  0  0
   18.6730   -6.0241    0.0000 C   0  0  0  0  0  0  0  0  0  0  0  0
   22.2454   -8.0866    0.0000 C   0  0  0  0  0  0  0  0  0  0  0  0
   10.0944   -9.3696    0.0000 C   0  0  2  0  0  0  0  0  0  0  0  0
   10.0786   -8.5448    0.0000 O   0  0  0  0  0  0  0  0  0  0  0  0
    9.3564   -8.1460    0.0000 C   0  0  1  0  0  0  0  0  0  0  0  0
    8.6499   -8.5448    0.0000 C   0  0  2  0  0  0  0  0  0  0  0  0
    8.6499   -9.3696    0.0000 C   0  0  1  0  0  0  0  0  0  0  0  0
    9.3564   -9.7683    0.0000 C   0  0  1  0  0  0  0  0  0  0  0  0
    9.3525   -7.3210    0.0000 C   0  0  0  0  0  0  0  0  0  0  0  0
    7.9375   -9.7856    0.0000 O   0  0  0  0  0  0  0  0  0  0  0  0
    9.3487  -10.5933    0.0000 O   0  0  0  0  0  0  0  0  0  0  0  0
    7.9375   -8.1288    0.0000 O   0  0  0  0  0  0  0  0  0  0  0  0
    8.6361   -6.9119    0.0000 O   0  0  0  0  0  0  0  0  0  0  0  0
    7.2210   -9.3766    0.0000 C   0  0  2  0  0  0  0  0  0  0  0  0
    7.2150   -8.5516    0.0000 O   0  0  0  0  0  0  0  0  0  0  0  0
    6.4975   -8.1443    0.0000 C   0  0  1  0  0  0  0  0  0  0  0  0
    5.7861   -8.5516    0.0000 C   0  0  2  0  0  0  0  0  0  0  0  0
    5.7861   -9.3766    0.0000 C   0  0  1  0  0  0  0  0  0  0  0  0
    6.4975   -9.7838    0.0000 C   0  0  1  0  0  0  0  0  0  0  0  0
    6.4960   -7.3193    0.0000 C   0  0  0  0  0  0  0  0  0  0  0  0
    5.0723   -9.7904    0.0000 O   0  0  0  0  0  0  0  0  0  0  0  0
    6.4945  -10.6088    0.0000 O   0  0  0  0  0  0  0  0  0  0  0  0
    5.0723   -8.1378    0.0000 O   0  0  0  0  0  0  0  0  0  0  0  0
    5.7808   -6.9081    0.0000 O   0  0  0  0  0  0  0  0  0  0  0  0
 27 29  1  1  0  0  0
 26 18  1  6  0  0  0
 25 19  1  1  0  0  0
 24 20  1  6  0  0  0
 23 22  1  1  0  0  0
 22 21  1  0  0  0  0
 28 23  1  0  0  0  0
 24 23  1  0  0  0  0
 25 24  1  0  0  0  0
 26 25  1  0  0  0  0
 27 26  1  0  0  0  0
 28 27  1  0  0  0  0
 32 30  1  0  0  0  0
  1  2  1  0  0  0  0
  2  3  1  0  0  0  0
  4  5  2  0  0  0  0
  4  6  1  0  0  0  0
  1  4  1  0  0  0  0
 32 31  2  0  0  0  0
  2 32  1  0  0  0  0
  7  8  2  0  0  0  0
  7  9  1  0  0  0  0
  3  7  1  0  0  0  0
  2 10  1  0  0  0  0
 12 13  1  0  0  0  0
 13 14  2  0  0  0  0
 14 15  1  0  0  0  0
 15 16  2  0  0  0  0
 16 17  1  0  0  0  0
 12 17  2  0  0  0  0
 15 29  1  0  0  0  0
 11 12  1  0  0  0  0
  6 11  1  0  0  0  0
 30 33  1  0  0  0  0
  9 34  1  0  0  0  0
 35 19  1  1  0  0  0
 35 36  1  0  0  0  0
 36 37  1  0  0  0  0
 37 38  1  0  0  0  0
 38 39  1  0  0  0  0
 39 40  1  0  0  0  0
 40 35  1  0  0  0  0
 37 41  1  1  0  0  0
 39 42  1  1  0  0  0
 40 43  1  6  0  0  0
 38 44  1  6  0  0  0
 41 45  1  0  0  0  0
 46 42  1  1  0  0  0
 46 47  1  0  0  0  0
 47 48  1  0  0  0  0
 48 49  1  0  0  0  0
 49 50  1  0  0  0  0
 50 51  1  0  0  0  0
 51 46  1  0  0  0  0
 48 52  1  1  0  0  0
 50 53  1  1  0  0  0
 51 54  1  6  0  0  0
 49 55  1  6  0  0  0
 52 56  1  0  0  0  0
M  END
>  <cdx:fragmentId>
3377

$$$$
