98544.cdx
  Mrv1902 05222410222D          

 34 35  0  0  0  0            999 V2000
    8.8555  -10.6441    0.0000 C   0  0  0  0  0  0  0  0  0  0  0  0
    9.5700  -10.2316    0.0000 C   0  0  0  0  0  0  0  0  0  0  0  0
   10.2845  -10.6441    0.0000 C   0  0  0  0  0  0  0  0  0  0  0  0
    8.1411  -10.2316    0.0000 C   0  0  0  0  0  0  0  0  0  0  0  0
    8.1411   -9.4066    0.0000 O   0  0  0  0  0  0  0  0  0  0  0  0
    7.4266  -10.6441    0.0000 O   0  0  0  0  0  0  0  0  0  0  0  0
   10.9989  -10.2316    0.0000 C   0  0  0  0  0  0  0  0  0  0  0  0
   10.9989   -9.4066    0.0000 O   0  0  0  0  0  0  0  0  0  0  0  0
   11.7134  -10.6441    0.0000 O   0  0  0  0  0  0  0  0  0  0  0  0
    9.5700  -11.0566    0.0000 O   0  0  0  0  0  0  0  0  0  0  0  0
    5.9976   -8.1691    0.0000 O   0  0  0  0  0  0  0  0  0  0  0  0
    4.5687   -8.9941    0.0000 O   0  0  0  0  0  0  0  0  0  0  0  0
    3.1398   -8.1691    0.0000 O   0  0  0  0  0  0  0  0  0  0  0  0
    2.4253   -6.9316    0.0000 O   0  0  0  0  0  0  0  0  0  0  0  0
    3.1398   -6.5191    0.0000 C   0  0  0  0  0  0  0  0  0  0  0  0
    3.8542   -6.9316    0.0000 C   0  0  2  0  0  0  0  0  0  0  0  0
    3.8542   -7.7566    0.0000 C   0  0  2  0  0  0  0  0  0  0  0  0
    4.5687   -8.1691    0.0000 C   0  0  1  0  0  0  0  0  0  0  0  0
    5.2832   -7.7566    0.0000 C   0  0  2  0  0  0  0  0  0  0  0  0
    5.2832   -6.9316    0.0000 C   0  0  1  0  0  0  0  0  0  0  0  0
    4.5687   -6.5191    0.0000 O   0  0  0  0  0  0  0  0  0  0  0  0
    5.9976   -6.5191    0.0000 O   0  0  0  0  0  0  0  0  0  0  0  0
    7.4266   -8.1691    0.0000 C   0  0  0  0  0  0  0  0  0  0  0  0
    6.7121   -7.7566    0.0000 C   0  0  0  0  0  0  0  0  0  0  0  0
    6.7121   -6.9316    0.0000 C   0  0  0  0  0  0  0  0  0  0  0  0
    7.4266   -6.5191    0.0000 C   0  0  0  0  0  0  0  0  0  0  0  0
    8.1411   -6.9316    0.0000 C   0  0  0  0  0  0  0  0  0  0  0  0
    8.1411   -7.7566    0.0000 C   0  0  0  0  0  0  0  0  0  0  0  0
    8.8555   -8.1691    0.0000 C   0  0  0  0  0  0  0  0  0  0  0  0
    8.8555   -8.9941    0.0000 O   0  0  0  0  0  0  0  0  0  0  0  0
   10.2845   -8.9941    0.0000 O   0  0  0  0  0  0  0  0  0  0  0  0
    9.5700   -9.4066    0.0000 C   0  0  0  0  0  0  0  0  0  0  0  0
   12.4279  -10.2316    0.0000 C   0  0  0  0  0  0  0  0  0  0  0  0
    6.7121  -10.2316    0.0000 C   0  0  0  0  0  0  0  0  0  0  0  0
 30 29  1  0  0  0  0
 29 28  1  0  0  0  0
 25 22  1  0  0  0  0
 20 22  1  1  0  0  0
 19 11  1  6  0  0  0
 18 12  1  1  0  0  0
 17 13  1  6  0  0  0
 16 15  1  1  0  0  0
 15 14  1  0  0  0  0
 21 16  1  0  0  0  0
 17 16  1  0  0  0  0
 18 17  1  0  0  0  0
 19 18  1  0  0  0  0
 20 19  1  0  0  0  0
 21 20  1  0  0  0  0
 28 23  2  0  0  0  0
 24 23  1  0  0  0  0
 25 24  2  0  0  0  0
 26 25  1  0  0  0  0
 27 26  2  0  0  0  0
 28 27  1  0  0  0  0
 32 30  1  0  0  0  0
  1  2  1  0  0  0  0
  2  3  1  0  0  0  0
  4  5  2  0  0  0  0
  4  6  1  0  0  0  0
  1  4  1  0  0  0  0
 32 31  2  0  0  0  0
  2 32  1  0  0  0  0
  7  8  2  0  0  0  0
  7  9  1  0  0  0  0
  3  7  1  0  0  0  0
  2 10  1  0  0  0  0
  9 33  1  0  0  0  0
  6 34  1  0  0  0  0
M  END
>  <cdx:fragmentId>
3377

$$$$
