98546.cdx
  Mrv1902 05222410232D          

 56 59  0  0  0  0            999 V2000
   10.0655  -11.5791    0.0000 C   0  0  0  0  0  0  0  0  0  0  0  0
   10.7800  -11.1666    0.0000 C   0  0  0  0  0  0  0  0  0  0  0  0
   11.4945  -11.5791    0.0000 C   0  0  0  0  0  0  0  0  0  0  0  0
    9.3511  -11.1666    0.0000 C   0  0  0  0  0  0  0  0  0  0  0  0
    9.3511  -10.3416    0.0000 O   0  0  0  0  0  0  0  0  0  0  0  0
    8.6366  -11.5791    0.0000 O   0  0  0  0  0  0  0  0  0  0  0  0
   12.2089  -11.1666    0.0000 C   0  0  0  0  0  0  0  0  0  0  0  0
   12.2089  -10.3416    0.0000 O   0  0  0  0  0  0  0  0  0  0  0  0
   12.9234  -11.5791    0.0000 O   0  0  0  0  0  0  0  0  0  0  0  0
   10.7800  -11.9916    0.0000 O   0  0  0  0  0  0  0  0  0  0  0  0
    7.2076   -9.1041    0.0000 O   0  0  0  0  0  0  0  0  0  0  0  0
    5.7787   -9.9291    0.0000 O   0  0  0  0  0  0  0  0  0  0  0  0
    4.3498   -9.1041    0.0000 O   0  0  0  0  0  0  0  0  0  0  0  0
    3.6353   -7.8666    0.0000 O   0  0  0  0  0  0  0  0  0  0  0  0
    4.3498   -7.4541    0.0000 C   0  0  0  0  0  0  0  0  0  0  0  0
    5.0642   -7.8666    0.0000 C   0  0  2  0  0  0  0  0  0  0  0  0
    5.0642   -8.6916    0.0000 C   0  0  2  0  0  0  0  0  0  0  0  0
    5.7787   -9.1041    0.0000 C   0  0  1  0  0  0  0  0  0  0  0  0
    6.4932   -8.6916    0.0000 C   0  0  2  0  0  0  0  0  0  0  0  0
    6.4932   -7.8666    0.0000 C   0  0  1  0  0  0  0  0  0  0  0  0
    5.7787   -7.4541    0.0000 O   0  0  0  0  0  0  0  0  0  0  0  0
    7.2076   -7.4541    0.0000 O   0  0  0  0  0  0  0  0  0  0  0  0
    8.6366   -9.1041    0.0000 C   0  0  0  0  0  0  0  0  0  0  0  0
    7.9221   -8.6916    0.0000 C   0  0  0  0  0  0  0  0  0  0  0  0
    7.9221   -7.8666    0.0000 C   0  0  0  0  0  0  0  0  0  0  0  0
    8.6366   -7.4541    0.0000 C   0  0  0  0  0  0  0  0  0  0  0  0
    9.3511   -7.8666    0.0000 C   0  0  0  0  0  0  0  0  0  0  0  0
    9.3511   -8.6916    0.0000 C   0  0  0  0  0  0  0  0  0  0  0  0
   10.0655   -9.1041    0.0000 C   0  0  0  0  0  0  0  0  0  0  0  0
   10.0655   -9.9291    0.0000 O   0  0  0  0  0  0  0  0  0  0  0  0
   11.4945   -9.9291    0.0000 O   0  0  0  0  0  0  0  0  0  0  0  0
   10.7800  -10.3416    0.0000 C   0  0  0  0  0  0  0  0  0  0  0  0
   13.6379  -11.1666    0.0000 C   0  0  0  0  0  0  0  0  0  0  0  0
    7.9221  -11.1666    0.0000 C   0  0  0  0  0  0  0  0  0  0  0  0
    5.0642  -10.3416    0.0000 C   0  0  2  0  0  0  0  0  0  0  0  0
    4.3498   -9.9291    0.0000 O   0  0  0  0  0  0  0  0  0  0  0  0
    3.6353  -10.3416    0.0000 C   0  0  1  0  0  0  0  0  0  0  0  0
    3.6353  -11.1666    0.0000 C   0  0  2  0  0  0  0  0  0  0  0  0
    4.3498  -11.5791    0.0000 C   0  0  1  0  0  0  0  0  0  0  0  0
    5.0642  -11.1666    0.0000 C   0  0  1  0  0  0  0  0  0  0  0  0
    2.9208   -9.9291    0.0000 C   0  0  0  0  0  0  0  0  0  0  0  0
    4.3498  -12.4041    0.0000 O   0  0  0  0  0  0  0  0  0  0  0  0
    5.7787  -11.5791    0.0000 O   0  0  0  0  0  0  0  0  0  0  0  0
    2.9208  -11.5791    0.0000 O   0  0  0  0  0  0  0  0  0  0  0  0
    2.2063  -10.3416    0.0000 O   0  0  0  0  0  0  0  0  0  0  0  0
    3.6353  -12.8166    0.0000 C   0  0  2  0  0  0  0  0  0  0  0  0
    2.9208  -12.4041    0.0000 O   0  0  0  0  0  0  0  0  0  0  0  0
    2.2063  -12.8166    0.0000 C   0  0  1  0  0  0  0  0  0  0  0  0
    2.2063  -13.6416    0.0000 C   0  0  2  0  0  0  0  0  0  0  0  0
    2.9208  -14.0541    0.0000 C   0  0  1  0  0  0  0  0  0  0  0  0
    3.6353  -13.6416    0.0000 C   0  0  1  0  0  0  0  0  0  0  0  0
    1.4919  -12.4041    0.0000 C   0  0  0  0  0  0  0  0  0  0  0  0
    2.9208  -14.8791    0.0000 O   0  0  0  0  0  0  0  0  0  0  0  0
    4.3498  -14.0541    0.0000 O   0  0  0  0  0  0  0  0  0  0  0  0
    1.4919  -14.0541    0.0000 O   0  0  0  0  0  0  0  0  0  0  0  0
    0.7774  -12.8166    0.0000 O   0  0  0  0  0  0  0  0  0  0  0  0
 30 29  1  0  0  0  0
 29 28  1  0  0  0  0
 25 22  1  0  0  0  0
 20 22  1  1  0  0  0
 19 11  1  6  0  0  0
 18 12  1  1  0  0  0
 17 13  1  6  0  0  0
 16 15  1  1  0  0  0
 15 14  1  0  0  0  0
 21 16  1  0  0  0  0
 17 16  1  0  0  0  0
 18 17  1  0  0  0  0
 19 18  1  0  0  0  0
 20 19  1  0  0  0  0
 21 20  1  0  0  0  0
 28 23  2  0  0  0  0
 24 23  1  0  0  0  0
 25 24  2  0  0  0  0
 26 25  1  0  0  0  0
 27 26  2  0  0  0  0
 28 27  1  0  0  0  0
 32 30  1  0  0  0  0
  1  2  1  0  0  0  0
  2  3  1  0  0  0  0
  4  5  2  0  0  0  0
  4  6  1  0  0  0  0
  1  4  1  0  0  0  0
 32 31  2  0  0  0  0
  2 32  1  0  0  0  0
  7  8  2  0  0  0  0
  7  9  1  0  0  0  0
  3  7  1  0  0  0  0
  2 10  1  0  0  0  0
  9 33  1  0  0  0  0
  6 34  1  0  0  0  0
 35 12  1  1  0  0  0
 35 36  1  0  0  0  0
 36 37  1  0  0  0  0
 37 38  1  0  0  0  0
 38 39  1  0  0  0  0
 39 40  1  0  0  0  0
 40 35  1  0  0  0  0
 37 41  1  1  0  0  0
 39 42  1  1  0  0  0
 40 43  1  6  0  0  0
 38 44  1  6  0  0  0
 41 45  1  0  0  0  0
 46 42  1  1  0  0  0
 46 47  1  0  0  0  0
 47 48  1  0  0  0  0
 48 49  1  0  0  0  0
 49 50  1  0  0  0  0
 50 51  1  0  0  0  0
 51 46  1  0  0  0  0
 48 52  1  1  0  0  0
 50 53  1  1  0  0  0
 51 54  1  6  0  0  0
 49 55  1  6  0  0  0
 52 56  1  0  0  0  0
M  END
>  <cdx:fragmentId>
3377

$$$$
