98555.cdx
  Mrv1902 05222410212D          

 24 24  0  0  0  0            999 V2000
    1.1516  -10.7921    0.0000 C   0  0  0  0  0  0  0  0  0  0  0  0
    0.4371  -11.2046    0.0000 C   0  0  0  0  0  0  0  0  0  0  0  0
    0.4371  -12.0296    0.0000 C   0  0  0  0  0  0  0  0  0  0  0  0
    1.1516  -12.4421    0.0000 C   0  0  0  0  0  0  0  0  0  0  0  0
    1.8661  -12.0296    0.0000 C   0  0  0  0  0  0  0  0  0  0  0  0
    1.8661  -11.2046    0.0000 N   0  0  0  0  0  0  0  0  0  0  0  0
    2.5805   -9.9671    0.0000 O   0  0  0  0  0  0  0  0  0  0  0  0
   14.0121  -10.7921    0.0000 C   0  0  0  0  0  0  0  0  0  0  0  0
   13.2976  -11.2046    0.0000 C   0  0  0  0  0  0  0  0  0  0  0  0
   12.5831  -10.7921    0.0000 C   0  0  0  0  0  0  0  0  0  0  0  0
   11.8687  -11.2046    0.0000 C   0  0  0  0  0  0  0  0  0  0  0  0
   11.1542  -10.7921    0.0000 C   0  0  0  0  0  0  0  0  0  0  0  0
   10.4397  -11.2046    0.0000 C   0  0  0  0  0  0  0  0  0  0  0  0
    9.7253  -10.7921    0.0000 C   0  0  0  0  0  0  0  0  0  0  0  0
    9.0108  -11.2046    0.0000 C   0  0  0  0  0  0  0  0  0  0  0  0
    8.2963  -10.7921    0.0000 C   0  0  0  0  0  0  0  0  0  0  0  0
    7.5818  -11.2046    0.0000 C   0  0  0  0  0  0  0  0  0  0  0  0
    6.8674  -10.7921    0.0000 C   0  0  0  0  0  0  0  0  0  0  0  0
    6.1529  -11.2046    0.0000 C   0  0  0  0  0  0  0  0  0  0  0  0
    5.4384  -10.7921    0.0000 C   0  0  0  0  0  0  0  0  0  0  0  0
    4.7240  -11.2046    0.0000 C   0  0  0  0  0  0  0  0  0  0  0  0
    4.0095  -10.7921    0.0000 C   0  0  0  0  0  0  0  0  0  0  0  0
    3.2950  -11.2046    0.0000 C   0  0  0  0  0  0  0  0  0  0  0  0
    2.5805  -10.7921    0.0000 C   0  0  0  0  0  0  0  0  0  0  0  0
  1  6  1  0  0  0  0
  2  1  1  0  0  0  0
  3  2  1  0  0  0  0
  4  3  1  0  0  0  0
  5  4  1  0  0  0  0
  6  5  1  0  0  0  0
 24  6  1  0  0  0  0
 24  7  2  0  0  0  0
  9  8  1  0  0  0  0
 10  9  1  0  0  0  0
 11 10  1  0  0  0  0
 12 11  1  0  0  0  0
 13 12  1  0  0  0  0
 14 13  1  0  0  0  0
 15 14  1  0  0  0  0
 16 15  1  0  0  0  0
 17 16  1  0  0  0  0
 18 17  1  0  0  0  0
 19 18  1  0  0  0  0
 20 19  1  0  0  0  0
 21 20  1  0  0  0  0
 22 21  1  0  0  0  0
 23 22  2  0  0  0  0
 24 23  1  0  0  0  0
M  END
>  <cdx:fragmentId>
88

$$$$
