98552.cdx
  Mrv1902 05222410232D          

 40 42  0  0  0  0            999 V2000
    7.0405  -10.4241    0.0000 C   0  0  0  0  0  0  0  0  0  0  0  0
    7.7550  -10.0116    0.0000 C   0  0  0  0  0  0  0  0  0  0  0  0
    8.4695  -10.4241    0.0000 C   0  0  0  0  0  0  0  0  0  0  0  0
    6.3261  -10.0116    0.0000 C   0  0  0  0  0  0  0  0  0  0  0  0
    6.3261   -9.1866    0.0000 O   0  0  0  0  0  0  0  0  0  0  0  0
    5.6116  -10.4241    0.0000 O   0  0  0  0  0  0  0  0  0  0  0  0
    9.1839  -10.0116    0.0000 C   0  0  0  0  0  0  0  0  0  0  0  0
    9.1839   -9.1866    0.0000 O   0  0  0  0  0  0  0  0  0  0  0  0
    9.8984  -10.4241    0.0000 O   0  0  0  0  0  0  0  0  0  0  0  0
    7.7550  -10.8366    0.0000 O   0  0  0  0  0  0  0  0  0  0  0  0
   10.6129  -10.0116    0.0000 C   0  0  0  0  0  0  0  0  0  0  0  0
   11.3274  -10.4241    0.0000 C   0  0  0  0  0  0  0  0  0  0  0  0
   12.0418  -10.0116    0.0000 C   0  0  0  0  0  0  0  0  0  0  0  0
   12.7563  -10.4241    0.0000 C   0  0  0  0  0  0  0  0  0  0  0  0
   12.7563  -11.2491    0.0000 C   0  0  0  0  0  0  0  0  0  0  0  0
   12.0418  -11.6616    0.0000 C   0  0  0  0  0  0  0  0  0  0  0  0
   11.3274  -11.2491    0.0000 C   0  0  0  0  0  0  0  0  0  0  0  0
   13.4708  -11.6616    0.0000 O   0  0  0  0  0  0  0  0  0  0  0  0
    4.1826   -7.9491    0.0000 O   0  0  0  0  0  0  0  0  0  0  0  0
    2.7537   -8.7741    0.0000 O   0  0  0  0  0  0  0  0  0  0  0  0
    1.3248   -7.9491    0.0000 O   0  0  0  0  0  0  0  0  0  0  0  0
    0.6103   -6.7116    0.0000 O   0  0  0  0  0  0  0  0  0  0  0  0
    1.3248   -6.2991    0.0000 C   0  0  0  0  0  0  0  0  0  0  0  0
    2.0392   -6.7116    0.0000 C   0  0  2  0  0  0  0  0  0  0  0  0
    2.0392   -7.5366    0.0000 C   0  0  2  0  0  0  0  0  0  0  0  0
    2.7537   -7.9491    0.0000 C   0  0  1  0  0  0  0  0  0  0  0  0
    3.4682   -7.5366    0.0000 C   0  0  2  0  0  0  0  0  0  0  0  0
    3.4682   -6.7116    0.0000 C   0  0  1  0  0  0  0  0  0  0  0  0
    2.7537   -6.2991    0.0000 O   0  0  0  0  0  0  0  0  0  0  0  0
    4.1826   -6.2991    0.0000 O   0  0  0  0  0  0  0  0  0  0  0  0
    5.6116   -7.9491    0.0000 C   0  0  0  0  0  0  0  0  0  0  0  0
    4.8971   -7.5366    0.0000 C   0  0  0  0  0  0  0  0  0  0  0  0
    4.8971   -6.7116    0.0000 C   0  0  0  0  0  0  0  0  0  0  0  0
    5.6116   -6.2991    0.0000 C   0  0  0  0  0  0  0  0  0  0  0  0
    6.3261   -6.7116    0.0000 C   0  0  0  0  0  0  0  0  0  0  0  0
    6.3261   -7.5366    0.0000 C   0  0  0  0  0  0  0  0  0  0  0  0
    7.0405   -7.9491    0.0000 C   0  0  0  0  0  0  0  0  0  0  0  0
    7.0405   -8.7741    0.0000 O   0  0  0  0  0  0  0  0  0  0  0  0
    8.4695   -8.7741    0.0000 O   0  0  0  0  0  0  0  0  0  0  0  0
    7.7550   -9.1866    0.0000 C   0  0  0  0  0  0  0  0  0  0  0  0
 38 37  1  0  0  0  0
 37 36  1  0  0  0  0
 33 30  1  0  0  0  0
 28 30  1  1  0  0  0
 27 19  1  6  0  0  0
 26 20  1  1  0  0  0
 25 21  1  6  0  0  0
 24 23  1  1  0  0  0
 23 22  1  0  0  0  0
 29 24  1  0  0  0  0
 25 24  1  0  0  0  0
 26 25  1  0  0  0  0
 27 26  1  0  0  0  0
 28 27  1  0  0  0  0
 29 28  1  0  0  0  0
 36 31  2  0  0  0  0
 32 31  1  0  0  0  0
 33 32  2  0  0  0  0
 34 33  1  0  0  0  0
 35 34  2  0  0  0  0
 36 35  1  0  0  0  0
 40 38  1  0  0  0  0
  1  2  1  0  0  0  0
  2  3  1  0  0  0  0
  4  5  2  0  0  0  0
  4  6  1  0  0  0  0
  1  4  1  0  0  0  0
 40 39  2  0  0  0  0
  2 40  1  0  0  0  0
  7  8  2  0  0  0  0
  7  9  1  0  0  0  0
  3  7  1  0  0  0  0
  2 10  1  0  0  0  0
 12 13  1  0  0  0  0
 13 14  2  0  0  0  0
 14 15  1  0  0  0  0
 15 16  2  0  0  0  0
 16 17  1  0  0  0  0
 12 17  2  0  0  0  0
 15 18  1  0  0  0  0
 11 12  1  0  0  0  0
  9 11  1  0  0  0  0
M  END
>  <cdx:fragmentId>
3613

$$$$
