98558.cdx
  Mrv1902 05222410252D          

 41 45  0  0  0  0            999 V2000
    3.7589   -9.4960    0.0000 O   0  0  0  0  0  0  0  0  0  0  0  0
   10.1891  -12.3835    0.0000 O   0  0  0  0  0  0  0  0  0  0  0  0
   10.9036  -11.1460    0.0000 C   0  0  0  0  0  0  0  0  0  0  0  0
   10.1891  -10.7335    0.0000 O   0  0  0  0  0  0  0  0  0  0  0  0
    8.0457  -11.9710    0.0000 C   0  0  0  0  0  0  0  0  0  0  0  0
    8.7602  -12.3835    0.0000 C   0  0  0  0  0  0  0  0  0  0  0  0
    9.4746  -11.9710    0.0000 C   0  0  0  0  0  0  0  0  0  0  0  0
    9.4746  -11.1460    0.0000 C   0  0  0  0  0  0  0  0  0  0  0  0
    8.7602  -10.7335    0.0000 C   0  0  0  0  0  0  0  0  0  0  0  0
    8.0457  -11.1460    0.0000 C   0  0  0  0  0  0  0  0  0  0  0  0
    6.6168  -11.9710    0.0000 O   0  0  0  0  0  0  0  0  0  0  0  0
    6.6168   -9.4960    0.0000 O   0  0  0  0  0  0  0  0  0  0  0  0
    5.9023   -9.9085    0.0000 C   0  0  0  0  0  0  0  0  0  0  0  0
    5.1878   -9.4960    0.0000 C   0  0  0  0  0  0  0  0  0  0  0  0
    4.4734   -9.9085    0.0000 C   0  0  0  0  0  0  0  0  0  0  0  0
    4.4734  -10.7335    0.0000 C   0  0  0  0  0  0  0  0  0  0  0  0
    5.1878  -11.1460    0.0000 C   0  0  0  0  0  0  0  0  0  0  0  0
    5.9023  -10.7335    0.0000 C   0  0  0  0  0  0  0  0  0  0  0  0
    6.6168  -11.1460    0.0000 C   0  0  0  0  0  0  0  0  0  0  0  0
    7.3312  -10.7335    0.0000 C   0  0  0  0  0  0  0  0  0  0  0  0
    7.3312   -9.9085    0.0000 C   0  0  0  0  0  0  0  0  0  0  0  0
    5.1878   -8.6710    0.0000 C   0  0  2  0  0  0  0  0  0  0  0  0
    5.9023   -8.2585    0.0000 O   0  0  0  0  0  0  0  0  0  0  0  0
    5.9023   -7.4335    0.0000 C   0  0  1  0  0  0  0  0  0  0  0  0
    5.1878   -7.0210    0.0000 C   0  0  2  0  0  0  0  0  0  0  0  0
    4.4734   -7.4335    0.0000 C   0  0  1  0  0  0  0  0  0  0  0  0
    4.4734   -8.2585    0.0000 C   0  0  1  0  0  0  0  0  0  0  0  0
    3.7589   -7.0210    0.0000 O   0  0  0  0  0  0  0  0  0  0  0  0
    6.6168   -7.0210    0.0000 C   0  0  0  0  0  0  0  0  0  0  0  0
    3.7589   -8.6710    0.0000 O   0  0  0  0  0  0  0  0  0  0  0  0
    5.1878   -6.1960    0.0000 O   0  0  0  0  0  0  0  0  0  0  0  0
    6.6168   -6.1960    0.0000 O   0  0  0  0  0  0  0  0  0  0  0  0
    8.1067   -6.0882    0.0000 O   0  0  0  0  0  0  0  0  0  0  0  0
    8.6472   -5.4649    0.0000 C   0  0  0  0  0  0  0  0  0  0  0  0
    8.2214   -4.7582    0.0000 C   0  0  2  0  0  0  0  0  0  0  0  0
    7.4178   -4.9448    0.0000 C   0  0  2  0  0  0  0  0  0  0  0  0
    7.3469   -5.7668    0.0000 C   0  0  2  0  0  0  0  0  0  0  0  0
    6.7945   -4.4043    0.0000 O   0  0  0  0  0  0  0  0  0  0  0  0
    7.9518   -3.9785    0.0000 O   0  0  0  0  0  0  0  0  0  0  0  0
    8.7619   -4.1349    0.0000 C   0  0  0  0  0  0  0  0  0  0  0  0
    9.5719   -4.2914    0.0000 O   0  0  0  0  0  0  0  0  0  0  0  0
 15  1  1  0  0  0  0
 20 10  1  0  0  0  0
  7  2  1  0  0  0  0
  8  4  1  0  0  0  0
  4  3  1  0  0  0  0
 10  5  2  0  0  0  0
  6  5  1  0  0  0  0
  7  6  2  0  0  0  0
  8  7  1  0  0  0  0
  9  8  2  0  0  0  0
 10  9  1  0  0  0  0
 19 11  2  0  0  0  0
 21 12  1  0  0  0  0
 13 12  1  0  0  0  0
 18 13  2  0  0  0  0
 14 13  1  0  0  0  0
 15 14  2  0  0  0  0
 16 15  1  0  0  0  0
 17 16  2  0  0  0  0
 18 17  1  0  0  0  0
 19 18  1  0  0  0  0
 20 19  1  0  0  0  0
 21 20  2  0  0  0  0
 22 14  1  1  0  0  0
 22 23  1  0  0  0  0
 23 24  1  0  0  0  0
 24 25  1  0  0  0  0
 25 26  1  0  0  0  0
 26 27  1  0  0  0  0
 27 22  1  0  0  0  0
 26 28  1  1  0  0  0
 24 29  1  1  0  0  0
 27 30  1  6  0  0  0
 25 31  1  6  0  0  0
 29 32  1  0  0  0  0
 33 34  1  0  0  0  0
 34 35  1  0  0  0  0
 35 36  1  0  0  0  0
 36 37  1  0  0  0  0
 37 33  1  0  0  0  0
 36 38  1  6  0  0  0
 35 39  1  6  0  0  0
 35 40  1  0  0  0  0
 40 41  1  0  0  0  0
 37 32  1  1  0  0  0
M  END
>  <cdx:fragmentId>
5

$$$$
