98551.cdx
  Mrv1902 05222410222D          

 62 66  0  0  0  0            999 V2000
   10.8080   -9.5166    0.0000 C   0  0  0  0  0  0  0  0  0  0  0  0
   11.5225   -9.1041    0.0000 C   0  0  0  0  0  0  0  0  0  0  0  0
   12.2370   -9.5166    0.0000 C   0  0  0  0  0  0  0  0  0  0  0  0
   10.0936   -9.1041    0.0000 C   0  0  0  0  0  0  0  0  0  0  0  0
   10.0936   -8.2791    0.0000 O   0  0  0  0  0  0  0  0  0  0  0  0
    9.3791   -9.5166    0.0000 O   0  0  0  0  0  0  0  0  0  0  0  0
   12.9514   -9.1041    0.0000 C   0  0  0  0  0  0  0  0  0  0  0  0
   12.9514   -8.2791    0.0000 O   0  0  0  0  0  0  0  0  0  0  0  0
   13.6659   -9.5166    0.0000 O   0  0  0  0  0  0  0  0  0  0  0  0
   11.5225   -9.9291    0.0000 O   0  0  0  0  0  0  0  0  0  0  0  0
   14.3804   -9.1041    0.0000 C   0  0  0  0  0  0  0  0  0  0  0  0
   15.0949   -9.5166    0.0000 C   0  0  0  0  0  0  0  0  0  0  0  0
   15.8093   -9.1041    0.0000 C   0  0  0  0  0  0  0  0  0  0  0  0
   16.5238   -9.5166    0.0000 C   0  0  0  0  0  0  0  0  0  0  0  0
   16.5238  -10.3416    0.0000 C   0  0  0  0  0  0  0  0  0  0  0  0
   15.8093  -10.7541    0.0000 C   0  0  0  0  0  0  0  0  0  0  0  0
   15.0949  -10.3416    0.0000 C   0  0  0  0  0  0  0  0  0  0  0  0
   17.2383  -10.7541    0.0000 O   0  0  0  0  0  0  0  0  0  0  0  0
   18.6672  -10.7541    0.0000 O   0  0  0  0  0  0  0  0  0  0  0  0
   17.9527  -10.3416    0.0000 C   0  0  2  0  0  0  0  0  0  0  0  0
   17.9527   -9.5166    0.0000 C   0  0  1  0  0  0  0  0  0  0  0  0
   18.6672   -9.1041    0.0000 C   0  0  2  0  0  0  0  0  0  0  0  0
   19.3817   -9.5166    0.0000 C   0  0  1  0  0  0  0  0  0  0  0  0
   19.3817  -10.3416    0.0000 C   0  0  1  0  0  0  0  0  0  0  0  0
   20.0962  -10.7541    0.0000 C   0  0  0  0  0  0  0  0  0  0  0  0
   20.8106  -10.3416    0.0000 O   0  0  0  0  0  0  0  0  0  0  0  0
   20.0962   -9.1041    0.0000 O   0  0  0  0  0  0  0  0  0  0  0  0
   18.6672   -8.2791    0.0000 O   0  0  0  0  0  0  0  0  0  0  0  0
   17.2383   -9.1041    0.0000 O   0  0  0  0  0  0  0  0  0  0  0  0
    7.9501   -7.0416    0.0000 O   0  0  0  0  0  0  0  0  0  0  0  0
    6.5212   -7.8666    0.0000 O   0  0  0  0  0  0  0  0  0  0  0  0
    5.0923   -7.0416    0.0000 O   0  0  0  0  0  0  0  0  0  0  0  0
    4.3778   -5.8041    0.0000 O   0  0  0  0  0  0  0  0  0  0  0  0
    5.0923   -5.3916    0.0000 C   0  0  0  0  0  0  0  0  0  0  0  0
    5.8067   -5.8041    0.0000 C   0  0  2  0  0  0  0  0  0  0  0  0
    5.8067   -6.6291    0.0000 C   0  0  2  0  0  0  0  0  0  0  0  0
    6.5212   -7.0416    0.0000 C   0  0  1  0  0  0  0  0  0  0  0  0
    7.2357   -6.6291    0.0000 C   0  0  2  0  0  0  0  0  0  0  0  0
    7.2357   -5.8041    0.0000 C   0  0  1  0  0  0  0  0  0  0  0  0
    6.5212   -5.3916    0.0000 O   0  0  0  0  0  0  0  0  0  0  0  0
    7.9501   -5.3916    0.0000 O   0  0  0  0  0  0  0  0  0  0  0  0
    9.3791   -7.0416    0.0000 C   0  0  0  0  0  0  0  0  0  0  0  0
    8.6646   -6.6291    0.0000 C   0  0  0  0  0  0  0  0  0  0  0  0
    8.6646   -5.8041    0.0000 C   0  0  0  0  0  0  0  0  0  0  0  0
    9.3791   -5.3916    0.0000 C   0  0  0  0  0  0  0  0  0  0  0  0
   10.0936   -5.8041    0.0000 C   0  0  0  0  0  0  0  0  0  0  0  0
   10.0936   -6.6291    0.0000 C   0  0  0  0  0  0  0  0  0  0  0  0
   10.8080   -7.0416    0.0000 C   0  0  0  0  0  0  0  0  0  0  0  0
   10.8080   -7.8666    0.0000 O   0  0  0  0  0  0  0  0  0  0  0  0
   12.2370   -7.8666    0.0000 O   0  0  0  0  0  0  0  0  0  0  0  0
   11.5225   -8.2791    0.0000 C   0  0  0  0  0  0  0  0  0  0  0  0
    5.8067   -8.2791    0.0000 C   0  0  2  0  0  0  0  0  0  0  0  0
    5.0923   -7.8666    0.0000 O   0  0  0  0  0  0  0  0  0  0  0  0
    4.3778   -8.2791    0.0000 C   0  0  1  0  0  0  0  0  0  0  0  0
    4.3778   -9.1041    0.0000 C   0  0  2  0  0  0  0  0  0  0  0  0
    5.0923   -9.5166    0.0000 C   0  0  1  0  0  0  0  0  0  0  0  0
    5.8067   -9.1041    0.0000 C   0  0  1  0  0  0  0  0  0  0  0  0
    3.6633   -7.8666    0.0000 C   0  0  0  0  0  0  0  0  0  0  0  0
    5.0923  -10.3416    0.0000 O   0  0  0  0  0  0  0  0  0  0  0  0
    6.5212   -9.5166    0.0000 O   0  0  0  0  0  0  0  0  0  0  0  0
    3.6633   -9.5166    0.0000 O   0  0  0  0  0  0  0  0  0  0  0  0
    2.9488   -8.2791    0.0000 O   0  0  0  0  0  0  0  0  0  0  0  0
 49 48  1  0  0  0  0
 48 47  1  0  0  0  0
 44 41  1  0  0  0  0
 39 41  1  1  0  0  0
 38 30  1  6  0  0  0
 37 31  1  1  0  0  0
 36 32  1  6  0  0  0
 35 34  1  1  0  0  0
 34 33  1  0  0  0  0
 40 35  1  0  0  0  0
 36 35  1  0  0  0  0
 37 36  1  0  0  0  0
 38 37  1  0  0  0  0
 39 38  1  0  0  0  0
 40 39  1  0  0  0  0
 47 42  2  0  0  0  0
 43 42  1  0  0  0  0
 44 43  2  0  0  0  0
 45 44  1  0  0  0  0
 46 45  2  0  0  0  0
 47 46  1  0  0  0  0
 51 49  1  0  0  0  0
  1  2  1  0  0  0  0
  2  3  1  0  0  0  0
  4  5  2  0  0  0  0
  4  6  1  0  0  0  0
  1  4  1  0  0  0  0
 51 50  2  0  0  0  0
  2 51  1  0  0  0  0
  7  8  2  0  0  0  0
  7  9  1  0  0  0  0
  3  7  1  0  0  0  0
  2 10  1  0  0  0  0
 12 13  1  0  0  0  0
 13 14  2  0  0  0  0
 14 15  1  0  0  0  0
 15 16  2  0  0  0  0
 16 17  1  0  0  0  0
 12 17  2  0  0  0  0
 19 20  1  0  0  0  0
 20 21  1  0  0  0  0
 21 22  1  0  0  0  0
 22 23  1  0  0  0  0
 23 24  1  0  0  0  0
 19 24  1  0  0  0  0
 25 26  1  0  0  0  0
 24 25  1  1  0  0  0
 23 27  1  6  0  0  0
 22 28  1  1  0  0  0
 21 29  1  6  0  0  0
 20 18  1  1  0  0  0
 15 18  1  0  0  0  0
 11 12  1  0  0  0  0
  9 11  1  0  0  0  0
 52 31  1  1  0  0  0
 52 53  1  0  0  0  0
 53 54  1  0  0  0  0
 54 55  1  0  0  0  0
 55 56  1  0  0  0  0
 56 57  1  0  0  0  0
 57 52  1  0  0  0  0
 54 58  1  1  0  0  0
 56 59  1  1  0  0  0
 57 60  1  6  0  0  0
 55 61  1  6  0  0  0
 58 62  1  0  0  0  0
M  END
>  <cdx:fragmentId>
3613

$$$$
