98553.cdx
  Mrv1902 05222410232D          

 20 19  0  0  0  0            999 V2000
    1.8371   -9.5510    0.0000 C   0  0  0  0  0  0  0  0  0  0  0  0
    1.1226   -8.3135    0.0000 C   0  0  0  0  0  0  0  0  0  0  0  0
    1.8371   -8.7260    0.0000 C   0  0  0  0  0  0  0  0  0  0  0  0
    2.5516   -8.3135    0.0000 C   0  0  0  0  0  0  0  0  0  0  0  0
    3.2661   -8.7260    0.0000 N   0  0  0  0  0  0  0  0  0  0  0  0
    3.9805   -7.4885    0.0000 O   0  0  0  0  0  0  0  0  0  0  0  0
   13.2687   -8.7260    0.0000 C   0  0  0  0  0  0  0  0  0  0  0  0
   12.5542   -8.3135    0.0000 C   0  0  0  0  0  0  0  0  0  0  0  0
   11.8397   -8.7260    0.0000 C   0  0  0  0  0  0  0  0  0  0  0  0
   11.1252   -8.3135    0.0000 C   0  0  0  0  0  0  0  0  0  0  0  0
   10.4108   -8.7260    0.0000 C   0  0  0  0  0  0  0  0  0  0  0  0
    9.6963   -8.3135    0.0000 C   0  0  0  0  0  0  0  0  0  0  0  0
    8.9818   -8.7260    0.0000 C   0  0  0  0  0  0  0  0  0  0  0  0
    8.2674   -8.3135    0.0000 C   0  0  0  0  0  0  0  0  0  0  0  0
    7.5529   -8.7260    0.0000 C   0  0  0  0  0  0  0  0  0  0  0  0
    6.8384   -8.3135    0.0000 C   0  0  0  0  0  0  0  0  0  0  0  0
    6.1239   -8.7260    0.0000 C   0  0  0  0  0  0  0  0  0  0  0  0
    5.4095   -8.3135    0.0000 C   0  0  0  0  0  0  0  0  0  0  0  0
    4.6950   -8.7260    0.0000 C   0  0  0  0  0  0  0  0  0  0  0  0
    3.9805   -8.3135    0.0000 C   0  0  0  0  0  0  0  0  0  0  0  0
  5  4  1  0  0  0  0
  1  3  1  0  0  0  0
  3  2  1  0  0  0  0
  4  3  1  0  0  0  0
 20  5  1  0  0  0  0
 20  6  2  0  0  0  0
  8  7  1  0  0  0  0
  9  8  1  0  0  0  0
 10  9  1  0  0  0  0
 11 10  1  0  0  0  0
 12 11  1  0  0  0  0
 13 12  1  0  0  0  0
 14 13  1  0  0  0  0
 15 14  1  0  0  0  0
 16 15  1  0  0  0  0
 17 16  1  0  0  0  0
 18 17  1  0  0  0  0
 19 18  2  0  0  0  0
 20 19  1  0  0  0  0
M  END
>  <cdx:fragmentId>
5

$$$$
