98557.cdx
  Mrv1902 05222410212D          

 77 86  0  0  0  0            999 V2000
    8.8189   -8.7103    0.0000 C   0  0  0  0  0  0  0  0  0  0  0  0
    9.7402   -8.8227    0.0000 C   0  0  0  0  0  0  0  0  0  0  0  0
   10.2899   -8.0749    0.0000 C   0  0  0  0  0  0  0  0  0  0  0  0
    9.9077   -7.2292    0.0000 C   0  0  0  0  0  0  0  0  0  0  0  0
    8.9829   -7.1497    0.0000 C   0  0  0  0  0  0  0  0  0  0  0  0
    8.3698   -6.5977    0.0000 C   0  0  0  0  0  0  0  0  0  0  0  0
    8.8547   -5.9302    0.0000 C   0  0  0  0  0  0  0  0  0  0  0  0
    8.5192   -5.1765    0.0000 C   0  0  0  0  0  0  0  0  0  0  0  0
    7.6987   -5.0903    0.0000 C   0  0  0  0  0  0  0  0  0  0  0  0
    7.2138   -5.7578    0.0000 C   0  0  0  0  0  0  0  0  0  0  0  0
    7.5493   -6.5114    0.0000 C   0  0  0  0  0  0  0  0  0  0  0  0
    6.8349   -6.9239    0.0000 C   0  0  0  0  0  0  0  0  0  0  0  0
    6.4993   -7.6776    0.0000 O   0  0  0  0  0  0  0  0  0  0  0  0
    6.6708   -8.4846    0.0000 C   0  0  0  0  0  0  0  0  0  0  0  0
    7.2839   -9.0366    0.0000 C   0  0  1  0  0  0  0  0  0  0  0  0
    8.2162   -9.5668    0.0000 O   0  0  0  0  0  0  0  0  0  0  0  0
    9.1450   -9.0305    0.0000 C   0  0  0  0  0  0  0  0  0  0  0  0
    9.1544   -7.9567    0.0000 C   0  0  0  0  0  0  0  0  0  0  0  0
    8.1044   -9.1228    0.0000 C   0  0  2  0  0  0  0  0  0  0  0  0
    6.2218   -6.3719    0.0000 O   0  0  0  0  0  0  0  0  0  0  0  0
    9.6190   -9.4283    0.0000 O   0  0  0  0  0  0  0  0  0  0  0  0
    7.3631   -4.3366    0.0000 O   0  0  0  0  0  0  0  0  0  0  0  0
    9.0041   -4.5091    0.0000 O   0  0  0  0  0  0  0  0  0  0  0  0
    9.6752   -6.0165    0.0000 O   0  0  0  0  0  0  0  0  0  0  0  0
   10.3843   -6.5558    0.0000 O   0  0  0  0  0  0  0  0  0  0  0  0
   11.1104   -8.1612    0.0000 O   0  0  0  0  0  0  0  0  0  0  0  0
   10.1939   -9.5118    0.0000 O   0  0  0  0  0  0  0  0  0  0  0  0
    3.2296   -7.6975    0.0000 C   0  0  0  0  0  0  0  0  0  0  0  0
    3.8129   -7.1142    0.0000 C   0  0  0  0  0  0  0  0  0  0  0  0
    3.4004   -6.3997    0.0000 C   0  0  0  0  0  0  0  0  0  0  0  0
    3.8129   -5.6852    0.0000 C   0  0  0  0  0  0  0  0  0  0  0  0
    4.6379   -5.6852    0.0000 C   0  0  0  0  0  0  0  0  0  0  0  0
    5.0504   -6.3997    0.0000 C   0  0  0  0  0  0  0  0  0  0  0  0
    4.6379   -7.1142    0.0000 C   0  0  0  0  0  0  0  0  0  0  0  0
    5.2213   -7.6975    0.0000 C   0  0  0  0  0  0  0  0  0  0  0  0
    5.2213   -8.5225    0.0000 O   0  0  0  0  0  0  0  0  0  0  0  0
    5.9564   -8.8971    0.0000 C   0  0  2  0  0  0  0  0  0  0  0  0
    5.8273   -9.7119    0.0000 C   0  0  1  0  0  0  0  0  0  0  0  0
    5.0125   -9.8410    0.0000 C   0  0  0  0  0  0  0  0  0  0  0  0
    4.6379   -9.1059    0.0000 O   0  0  0  0  0  0  0  0  0  0  0  0
    3.8129   -9.1059    0.0000 C   0  0  0  0  0  0  0  0  0  0  0  0
    3.2296   -8.5225    0.0000 C   0  0  0  0  0  0  0  0  0  0  0  0
    2.5151   -8.9350    0.0000 C   0  0  0  0  0  0  0  0  0  0  0  0
    1.8006   -8.5225    0.0000 C   0  0  0  0  0  0  0  0  0  0  0  0
    1.8006   -7.6975    0.0000 C   0  0  0  0  0  0  0  0  0  0  0  0
    2.5151   -7.2850    0.0000 C   0  0  0  0  0  0  0  0  0  0  0  0
    3.4972   -9.8681    0.0000 O   0  0  0  0  0  0  0  0  0  0  0  0
    5.9835   -7.3818    0.0000 O   0  0  0  0  0  0  0  0  0  0  0  0
    2.2329   -6.5098    0.0000 O   0  0  0  0  0  0  0  0  0  0  0  0
    1.0861   -7.2850    0.0000 O   0  0  0  0  0  0  0  0  0  0  0  0
    1.0861   -8.9350    0.0000 O   0  0  0  0  0  0  0  0  0  0  0  0
    6.4107  -10.2953    0.0000 O   0  0  0  0  0  0  0  0  0  0  0  0
    5.0504   -4.9708    0.0000 O   0  0  0  0  0  0  0  0  0  0  0  0
    3.4004   -4.9708    0.0000 O   0  0  0  0  0  0  0  0  0  0  0  0
    2.6252   -6.1175    0.0000 O   0  0  0  0  0  0  0  0  0  0  0  0
   10.5097  -10.1298    0.0000 C   0  0  0  0  0  0  0  0  0  0  0  0
   10.6813  -10.9367    0.0000 C   0  0  0  0  0  0  0  0  0  0  0  0
   10.0682  -11.4888    0.0000 C   0  0  0  0  0  0  0  0  0  0  0  0
    9.2835  -11.2338    0.0000 C   0  0  0  0  0  0  0  0  0  0  0  0
    8.6704  -11.7858    0.0000 C   0  0  0  0  0  0  0  0  0  0  0  0
    7.8858  -11.5309    0.0000 C   0  0  0  0  0  0  0  0  0  0  0  0
    7.7143  -10.7239    0.0000 C   0  0  0  0  0  0  0  0  0  0  0  0
    8.3274  -10.1719    0.0000 C   0  0  0  0  0  0  0  0  0  0  0  0
    9.1120  -10.4268    0.0000 C   0  0  0  0  0  0  0  0  0  0  0  0
    9.7251   -9.8748    0.0000 O   0  0  0  0  0  0  0  0  0  0  0  0
    6.8893  -10.7239    0.0000 O   0  0  0  0  0  0  0  0  0  0  0  0
    8.8420  -12.5928    0.0000 O   0  0  0  0  0  0  0  0  0  0  0  0
   11.4659  -11.1917    0.0000 O   0  0  0  0  0  0  0  0  0  0  0  0
   11.1228   -9.5777    0.0000 C   0  0  0  0  0  0  0  0  0  0  0  0
   11.9074   -9.8327    0.0000 C   0  0  0  0  0  0  0  0  0  0  0  0
   12.5205   -9.2806    0.0000 C   0  0  0  0  0  0  0  0  0  0  0  0
   12.3490   -8.4737    0.0000 C   0  0  0  0  0  0  0  0  0  0  0  0
   11.5644   -8.2187    0.0000 C   0  0  0  0  0  0  0  0  0  0  0  0
   10.9513   -8.7707    0.0000 C   0  0  0  0  0  0  0  0  0  0  0  0
   12.9621   -7.9216    0.0000 O   0  0  0  0  0  0  0  0  0  0  0  0
   13.3052   -9.5356    0.0000 O   0  0  0  0  0  0  0  0  0  0  0  0
    6.8012   -9.7056    0.0000 H   0  0  0  0  0  0  0  0  0  0  0  0
  1  2  2  0  0  0  0
  2  3  1  0  0  0  0
  3  4  2  0  0  0  0
  4  5  1  0  0  0  0
  5  6  1  0  0  0  0
  6  7  2  0  0  0  0
  7  8  1  0  0  0  0
  8  9  2  0  0  0  0
  9 10  1  0  0  0  0
 10 11  2  0  0  0  0
 11 12  1  0  0  0  0
 12 13  1  0  0  0  0
 13 14  1  0  0  0  0
 14 15  1  0  0  0  0
 15 16  1  6  0  0  0
 16 17  1  0  0  0  0
 17 18  1  0  0  0  0
  1 18  1  0  0  0  0
  1 19  1  0  0  0  0
 19 15  1  0  0  0  0
  5 18  2  0  0  0  0
  6 11  1  0  0  0  0
 12 20  2  0  0  0  0
 17 21  2  0  0  0  0
  9 22  1  0  0  0  0
  8 23  1  0  0  0  0
  7 24  1  0  0  0  0
  4 25  1  0  0  0  0
  3 26  1  0  0  0  0
  2 27  1  0  0  0  0
 28 29  1  0  0  0  0
 29 30  2  0  0  0  0
 30 31  1  0  0  0  0
 31 32  2  0  0  0  0
 32 33  1  0  0  0  0
 33 34  2  0  0  0  0
 34 35  1  0  0  0  0
 35 36  1  0  0  0  0
 37 36  1  1  0  0  0
 37 38  1  0  0  0  0
 38 39  1  0  0  0  0
 39 40  1  0  0  0  0
 40 41  1  0  0  0  0
 41 42  1  0  0  0  0
 42 43  2  0  0  0  0
 43 44  1  0  0  0  0
 44 45  2  0  0  0  0
 45 46  1  0  0  0  0
 28 46  2  0  0  0  0
 28 42  1  0  0  0  0
 29 34  1  0  0  0  0
 41 47  2  0  0  0  0
 35 48  2  0  0  0  0
 46 49  1  0  0  0  0
 45 50  1  0  0  0  0
 44 51  1  0  0  0  0
 38 52  1  6  0  0  0
 32 53  1  0  0  0  0
 31 54  1  0  0  0  0
 30 55  1  0  0  0  0
 14 37  1  0  0  0  0
 56 57  1  0  0  0  0
 57 58  1  0  0  0  0
 58 59  1  0  0  0  0
 59 60  1  0  0  0  0
 60 61  2  0  0  0  0
 61 62  1  0  0  0  0
 62 63  2  0  0  0  0
 63 64  1  0  0  0  0
 59 64  2  0  0  0  0
 64 65  1  0  0  0  0
 56 65  1  0  0  0  0
 62 66  1  0  0  0  0
 60 67  1  0  0  0  0
 57 68  1  0  0  0  0
 69 70  1  0  0  0  0
 70 71  2  0  0  0  0
 71 72  1  0  0  0  0
 72 73  2  0  0  0  0
 73 74  1  0  0  0  0
 69 74  2  0  0  0  0
 72 75  1  0  0  0  0
 71 76  1  0  0  0  0
 56 69  1  0  0  0  0
 19 63  1  1  0  0  0
 15 77  1  0  0  0  0
M  END
>  <cdx:fragmentId>
59

$$$$
