98565.cdx
  Mrv1902 05222410252D          

 29 32  0  0  0  0            999 V2000
    3.7037   -8.2500    0.0000 C   0  0  0  0  0  0  0  0  0  0  0  0
    3.7037   -9.0750    0.0000 C   0  0  0  0  0  0  0  0  0  0  0  0
    4.4181   -9.4875    0.0000 C   0  0  0  0  0  0  0  0  0  0  0  0
    5.1326   -9.0750    0.0000 C   0  0  0  0  0  0  0  0  0  0  0  0
    5.1326   -8.2500    0.0000 C   0  0  0  0  0  0  0  0  0  0  0  0
    4.4181   -7.8375    0.0000 C   0  0  0  0  0  0  0  0  0  0  0  0
    5.8471   -9.4875    0.0000 C   0  0  0  0  0  0  0  0  0  0  0  0
    6.5616   -9.0750    0.0000 C   0  0  0  0  0  0  0  0  0  0  0  0
    6.5616   -8.2500    0.0000 C   0  0  0  0  0  0  0  0  0  0  0  0
    5.8471   -7.8375    0.0000 O   0  0  0  0  0  0  0  0  0  0  0  0
    4.4181  -10.3125    0.0000 O   0  0  0  0  0  0  0  0  0  0  0  0
    5.8471  -10.3125    0.0000 O   0  0  0  0  0  0  0  0  0  0  0  0
    7.9905   -8.2500    0.0000 C   0  0  0  0  0  0  0  0  0  0  0  0
    7.2760   -7.8375    0.0000 C   0  0  0  0  0  0  0  0  0  0  0  0
    8.7050   -7.8375    0.0000 C   0  0  0  0  0  0  0  0  0  0  0  0
    8.7050   -7.0125    0.0000 C   0  0  0  0  0  0  0  0  0  0  0  0
    7.9905   -6.6000    0.0000 C   0  0  0  0  0  0  0  0  0  0  0  0
    7.2760   -7.0125    0.0000 C   0  0  0  0  0  0  0  0  0  0  0  0
    2.9892   -7.8375    0.0000 O   0  0  0  0  0  0  0  0  0  0  0  0
    9.4194   -6.6000    0.0000 O   0  0  0  0  0  0  0  0  0  0  0  0
    9.4194   -8.2500    0.0000 C   0  0  0  0  0  0  0  0  0  0  0  0
    9.4194   -9.0750    0.0000 C   0  0  0  0  0  0  0  0  0  0  0  0
   10.1339   -9.4875    0.0000 C   0  0  0  0  0  0  0  0  0  0  0  0
   10.8484   -9.0750    0.0000 C   0  0  0  0  0  0  0  0  0  0  0  0
   10.8484   -8.2500    0.0000 C   0  0  0  0  0  0  0  0  0  0  0  0
   10.1339   -7.8375    0.0000 C   0  0  0  0  0  0  0  0  0  0  0  0
   11.5629   -9.4875    0.0000 C   0  0  0  0  0  0  0  0  0  0  0  0
   12.2773   -9.0750    0.0000 O   0  0  0  0  0  0  0  0  0  0  0  0
   11.5629  -10.3125    0.0000 O   0  0  0  0  0  0  0  0  0  0  0  0
  1  2  2  0  0  0  0
  2  3  1  0  0  0  0
  3  4  2  0  0  0  0
  4  5  1  0  0  0  0
  5  6  2  0  0  0  0
  6  1  1  0  0  0  0
  4  7  1  0  0  0  0
  7  8  1  0  0  0  0
  8  9  2  0  0  0  0
  9 10  1  0  0  0  0
 10  5  1  0  0  0  0
  3 11  1  0  0  0  0
 12  7  2  0  0  0  0
 13 14  2  0  0  0  0
 14  9  1  0  0  0  0
 13 15  1  0  0  0  0
 15 16  2  0  0  0  0
 16 17  1  0  0  0  0
 17 18  2  0  0  0  0
 18 14  1  0  0  0  0
  1 19  1  0  0  0  0
 16 20  1  0  0  0  0
 15 21  1  0  0  0  0
 21 22  2  0  0  0  0
 22 23  1  0  0  0  0
 23 24  2  0  0  0  0
 24 25  1  0  0  0  0
 25 26  2  0  0  0  0
 26 21  1  0  0  0  0
 24 27  1  0  0  0  0
 27 28  1  0  0  0  0
 27 29  2  0  0  0  0
M  END
>  <cdx:fragmentId>
5

$$$$
