98563.cdx
  Mrv1902 05222410232D          

 41 45  0  0  0  0            999 V2000
    9.4512   -6.6413    0.0000 C   0  0  1  0  0  0  0  0  0  0  0  0
    9.4512   -7.4663    0.0000 C   0  0  0  0  0  0  0  0  0  0  0  0
   10.1656   -7.8788    0.0000 C   0  0  1  0  0  0  0  0  0  0  0  0
   10.8801   -7.4663    0.0000 O   0  0  0  0  0  0  0  0  0  0  0  0
   10.8801   -6.6413    0.0000 C   0  0  0  0  0  0  0  0  0  0  0  0
   10.1656   -6.2287    0.0000 C   0  0  0  0  0  0  0  0  0  0  0  0
    8.6666   -6.3863    0.0000 C   0  0  1  0  0  0  0  0  0  0  0  0
    8.1816   -7.0537    0.0000 C   0  0  1  0  0  0  0  0  0  0  0  0
    8.6666   -7.7212    0.0000 C   0  0  1  0  0  0  0  0  0  0  0  0
   10.1656   -5.4037    0.0000 C   0  0  0  0  0  0  0  0  0  0  0  0
    9.4512   -4.9913    0.0000 O   0  0  0  0  0  0  0  0  0  0  0  0
   10.8801   -4.9913    0.0000 O   0  0  0  0  0  0  0  0  0  0  0  0
   10.8801   -4.1662    0.0000 C   0  0  0  0  0  0  0  0  0  0  0  0
    9.3649   -5.8208    0.0000 H   0  0  0  0  0  0  0  0  0  0  0  0
   10.1656   -8.7037    0.0000 O   0  0  0  0  0  0  0  0  0  0  0  0
    9.5823   -9.2871    0.0000 C   0  0  2  0  0  0  0  0  0  0  0  0
    8.7854   -9.0736    0.0000 O   0  0  0  0  0  0  0  0  0  0  0  0
    8.2020   -9.6570    0.0000 C   0  0  1  0  0  0  0  0  0  0  0  0
    8.4156  -10.4538    0.0000 C   0  0  2  0  0  0  0  0  0  0  0  0
    9.2124  -10.6674    0.0000 C   0  0  1  0  0  0  0  0  0  0  0  0
    9.7958  -10.0840    0.0000 C   0  0  1  0  0  0  0  0  0  0  0  0
    7.4051   -9.4434    0.0000 C   0  0  0  0  0  0  0  0  0  0  0  0
    9.4260  -11.4643    0.0000 O   0  0  0  0  0  0  0  0  0  0  0  0
    7.8322  -11.0372    0.0000 O   0  0  0  0  0  0  0  0  0  0  0  0
   10.5927  -10.2975    0.0000 O   0  0  0  0  0  0  0  0  0  0  0  0
    8.4116   -8.5058    0.0000 C   0  0  0  0  0  0  0  0  0  0  0  0
    6.8218  -10.0268    0.0000 O   0  0  0  0  0  0  0  0  0  0  0  0
    7.7691   -7.7682    0.0000 O   0  0  0  0  0  0  0  0  0  0  0  0
    8.4116   -5.6017    0.0000 O   0  0  0  0  0  0  0  0  0  0  0  0
    6.0249   -9.8133    0.0000 C   0  0  0  0  0  0  0  0  0  0  0  0
    5.4415  -10.3966    0.0000 C   0  0  0  0  0  0  0  0  0  0  0  0
    4.6446  -10.1831    0.0000 C   0  0  0  0  0  0  0  0  0  0  0  0
    4.0613  -10.7665    0.0000 C   0  0  0  0  0  0  0  0  0  0  0  0
    4.2748  -11.5634    0.0000 C   0  0  0  0  0  0  0  0  0  0  0  0
    5.0717  -11.7769    0.0000 C   0  0  0  0  0  0  0  0  0  0  0  0
    5.6551  -11.1935    0.0000 C   0  0  0  0  0  0  0  0  0  0  0  0
    3.6914  -12.1467    0.0000 O   0  0  0  0  0  0  0  0  0  0  0  0
    3.2644  -10.5529    0.0000 O   0  0  0  0  0  0  0  0  0  0  0  0
    2.6810  -11.1363    0.0000 C   0  0  0  0  0  0  0  0  0  0  0  0
    5.2852  -12.5738    0.0000 O   0  0  0  0  0  0  0  0  0  0  0  0
    4.7019  -13.1571    0.0000 C   0  0  0  0  0  0  0  0  0  0  0  0
  1  2  1  0  0  0  0
  2  3  1  0  0  0  0
  3  4  1  0  0  0  0
  4  5  1  0  0  0  0
  5  6  2  0  0  0  0
  6  1  1  0  0  0  0
  1  7  1  0  0  0  0
  7  8  1  0  0  0  0
  8  9  1  0  0  0  0
  9  2  1  0  0  0  0
  6 10  1  0  0  0  0
 10 11  2  0  0  0  0
 10 12  1  0  0  0  0
 12 13  1  0  0  0  0
  1 14  1  1  0  0  0
  3 15  1  1  0  0  0
 16 15  1  1  0  0  0
 16 17  1  0  0  0  0
 17 18  1  0  0  0  0
 18 19  1  0  0  0  0
 19 20  1  0  0  0  0
 20 21  1  0  0  0  0
 21 16  1  0  0  0  0
 18 22  1  1  0  0  0
 20 23  1  1  0  0  0
 19 24  1  6  0  0  0
 21 25  1  6  0  0  0
  9 26  1  6  0  0  0
 22 27  1  0  0  0  0
  8 28  1  1  0  0  0
  9 28  1  1  0  0  0
  7 29  1  1  0  0  0
 27 30  1  0  0  0  0
 30 31  1  0  0  0  0
 31 32  2  0  0  0  0
 32 33  1  0  0  0  0
 33 34  2  0  0  0  0
 34 35  1  0  0  0  0
 35 36  2  0  0  0  0
 36 31  1  0  0  0  0
 34 37  1  0  0  0  0
 33 38  1  0  0  0  0
 38 39  1  0  0  0  0
 35 40  1  0  0  0  0
 40 41  1  0  0  0  0
M  END
>  <cdx:fragmentId>
5

$$$$
