98562.cdx
  Mrv1902 05222410232D          

 28 30  0  0  0  0            999 V2000
    7.7737   -7.6037    0.0000 C   0  0  1  0  0  0  0  0  0  0  0  0
    7.7737   -8.4288    0.0000 C   0  0  2  0  0  0  0  0  0  0  0  0
    8.4881   -8.8413    0.0000 C   0  0  1  0  0  0  0  0  0  0  0  0
    9.2026   -8.4288    0.0000 O   0  0  0  0  0  0  0  0  0  0  0  0
    9.2026   -7.6037    0.0000 C   0  0  0  0  0  0  0  0  0  0  0  0
    8.4881   -7.1913    0.0000 C   0  0  0  0  0  0  0  0  0  0  0  0
    6.9891   -7.3488    0.0000 C   0  0  0  0  0  0  0  0  0  0  0  0
    6.5041   -8.0162    0.0000 C   0  0  0  0  0  0  0  0  0  0  0  0
    6.9891   -8.6837    0.0000 C   0  0  1  0  0  0  0  0  0  0  0  0
    8.4881   -6.3662    0.0000 C   0  0  0  0  0  0  0  0  0  0  0  0
    7.7737   -5.9538    0.0000 O   0  0  0  0  0  0  0  0  0  0  0  0
    9.2026   -5.9538    0.0000 O   0  0  0  0  0  0  0  0  0  0  0  0
    9.2026   -5.1287    0.0000 C   0  0  0  0  0  0  0  0  0  0  0  0
    7.6874   -6.7833    0.0000 H   0  0  0  0  0  0  0  0  0  0  0  0
    7.6874   -9.2492    0.0000 H   0  0  0  0  0  0  0  0  0  0  0  0
    8.4881   -9.6662    0.0000 O   0  0  0  0  0  0  0  0  0  0  0  0
    7.9048  -10.2496    0.0000 C   0  0  2  0  0  0  0  0  0  0  0  0
    7.1079  -10.0361    0.0000 O   0  0  0  0  0  0  0  0  0  0  0  0
    6.5245  -10.6195    0.0000 C   0  0  1  0  0  0  0  0  0  0  0  0
    6.7381  -11.4163    0.0000 C   0  0  2  0  0  0  0  0  0  0  0  0
    7.5349  -11.6299    0.0000 C   0  0  1  0  0  0  0  0  0  0  0  0
    8.1183  -11.0465    0.0000 C   0  0  1  0  0  0  0  0  0  0  0  0
    5.7276  -10.4059    0.0000 C   0  0  0  0  0  0  0  0  0  0  0  0
    7.7485  -12.4268    0.0000 O   0  0  0  0  0  0  0  0  0  0  0  0
    6.1547  -11.9997    0.0000 O   0  0  0  0  0  0  0  0  0  0  0  0
    8.9152  -11.2600    0.0000 O   0  0  0  0  0  0  0  0  0  0  0  0
    6.7341   -9.4683    0.0000 C   0  0  0  0  0  0  0  0  0  0  0  0
    5.1443  -10.9893    0.0000 O   0  0  0  0  0  0  0  0  0  0  0  0
  1  2  1  0  0  0  0
  2  3  1  0  0  0  0
  3  4  1  0  0  0  0
  4  5  1  0  0  0  0
  5  6  2  0  0  0  0
  6  1  1  0  0  0  0
  1  7  1  0  0  0  0
  7  8  1  0  0  0  0
  8  9  1  0  0  0  0
  9  2  1  0  0  0  0
  6 10  1  0  0  0  0
 10 11  2  0  0  0  0
 10 12  1  0  0  0  0
 12 13  1  0  0  0  0
  1 14  1  1  0  0  0
  2 15  1  1  0  0  0
  3 16  1  1  0  0  0
 17 16  1  1  0  0  0
 17 18  1  0  0  0  0
 18 19  1  0  0  0  0
 19 20  1  0  0  0  0
 20 21  1  0  0  0  0
 21 22  1  0  0  0  0
 22 17  1  0  0  0  0
 19 23  1  1  0  0  0
 21 24  1  1  0  0  0
 20 25  1  6  0  0  0
 22 26  1  6  0  0  0
  9 27  1  6  0  0  0
 23 28  1  0  0  0  0
M  END
>  <cdx:fragmentId>
5

$$$$
