98561.cdx
  Mrv1902 05222410242D          

 55 60  0  0  0  0            999 V2000
    3.2224   -5.5825    0.0000 C   0  0  0  0  0  0  0  0  0  0  0  0
    3.2224   -6.4075    0.0000 C   0  0  0  0  0  0  0  0  0  0  0  0
    3.9369   -6.8200    0.0000 C   0  0  0  0  0  0  0  0  0  0  0  0
    4.6514   -6.4075    0.0000 C   0  0  0  0  0  0  0  0  0  0  0  0
    4.6514   -5.5825    0.0000 C   0  0  0  0  0  0  0  0  0  0  0  0
    3.9369   -5.1700    0.0000 C   0  0  0  0  0  0  0  0  0  0  0  0
    5.3658   -6.8200    0.0000 C   0  0  0  0  0  0  0  0  0  0  0  0
    6.0803   -6.4075    0.0000 C   0  0  0  0  0  0  0  0  0  0  0  0
    6.0803   -5.5825    0.0000 C   0  0  0  0  0  0  0  0  0  0  0  0
    5.3658   -5.1700    0.0000 O   0  0  0  0  0  0  0  0  0  0  0  0
    6.7948   -6.8200    0.0000 O   0  0  0  0  0  0  0  0  0  0  0  0
    7.5093   -5.5825    0.0000 C   0  0  0  0  0  0  0  0  0  0  0  0
    6.7948   -5.1700    0.0000 C   0  0  0  0  0  0  0  0  0  0  0  0
    8.2237   -5.1700    0.0000 C   0  0  0  0  0  0  0  0  0  0  0  0
    8.2237   -4.3450    0.0000 C   0  0  0  0  0  0  0  0  0  0  0  0
    7.5093   -3.9325    0.0000 C   0  0  0  0  0  0  0  0  0  0  0  0
    6.7948   -4.3450    0.0000 C   0  0  0  0  0  0  0  0  0  0  0  0
    7.5093   -3.1075    0.0000 O   0  0  0  0  0  0  0  0  0  0  0  0
    8.9382   -3.9325    0.0000 O   0  0  0  0  0  0  0  0  0  0  0  0
    2.5080   -5.1700    0.0000 O   0  0  0  0  0  0  0  0  0  0  0  0
    3.9369   -7.6450    0.0000 O   0  0  0  0  0  0  0  0  0  0  0  0
    5.3658   -7.6450    0.0000 O   0  0  0  0  0  0  0  0  0  0  0  0
    6.7948   -7.6450    0.0000 C   0  0  2  0  0  0  0  0  0  0  0  0
    6.0803   -8.0575    0.0000 O   0  0  0  0  0  0  0  0  0  0  0  0
    6.0803   -8.8825    0.0000 C   0  0  1  0  0  0  0  0  0  0  0  0
    6.7948   -9.2950    0.0000 C   0  0  2  0  0  0  0  0  0  0  0  0
    7.5093   -8.8825    0.0000 C   0  0  1  0  0  0  0  0  0  0  0  0
    7.5093   -8.0575    0.0000 C   0  0  1  0  0  0  0  0  0  0  0  0
    5.3658   -9.2950    0.0000 C   0  0  0  0  0  0  0  0  0  0  0  0
    8.2237   -9.2950    0.0000 O   0  0  0  0  0  0  0  0  0  0  0  0
    8.2237   -7.6450    0.0000 O   0  0  0  0  0  0  0  0  0  0  0  0
    6.7948  -10.1200    0.0000 O   0  0  0  0  0  0  0  0  0  0  0  0
    5.3658  -10.1200    0.0000 O   0  0  0  0  0  0  0  0  0  0  0  0
    8.9382   -8.0575    0.0000 C   0  0  0  0  0  0  0  0  0  0  0  0
    9.6527   -7.6450    0.0000 C   0  0  0  0  0  0  0  0  0  0  0  0
    8.9382   -8.8825    0.0000 O   0  0  0  0  0  0  0  0  0  0  0  0
   10.3671   -8.0575    0.0000 C   0  0  0  0  0  0  0  0  0  0  0  0
   11.0816   -7.6450    0.0000 C   0  0  0  0  0  0  0  0  0  0  0  0
   11.7961   -8.0575    0.0000 C   0  0  0  0  0  0  0  0  0  0  0  0
   12.5106   -7.6450    0.0000 C   0  0  0  0  0  0  0  0  0  0  0  0
   12.5106   -6.8200    0.0000 C   0  0  0  0  0  0  0  0  0  0  0  0
   11.7961   -6.4075    0.0000 C   0  0  0  0  0  0  0  0  0  0  0  0
   11.0816   -6.8200    0.0000 C   0  0  0  0  0  0  0  0  0  0  0  0
   13.2250   -6.4075    0.0000 O   0  0  0  0  0  0  0  0  0  0  0  0
   13.2250   -8.0575    0.0000 O   0  0  0  0  0  0  0  0  0  0  0  0
    4.6514  -10.5325    0.0000 C   0  0  2  0  0  0  0  0  0  0  0  0
    3.9369  -10.1200    0.0000 O   0  0  0  0  0  0  0  0  0  0  0  0
    3.2224  -10.5325    0.0000 C   0  0  2  0  0  0  0  0  0  0  0  0
    3.2224  -11.3575    0.0000 C   0  0  1  0  0  0  0  0  0  0  0  0
    3.9369  -11.7700    0.0000 C   0  0  2  0  0  0  0  0  0  0  0  0
    4.6514  -11.3575    0.0000 C   0  0  1  0  0  0  0  0  0  0  0  0
    2.5080  -11.7700    0.0000 O   0  0  0  0  0  0  0  0  0  0  0  0
    2.5080  -10.1200    0.0000 C   0  0  0  0  0  0  0  0  0  0  0  0
    3.9369  -12.5950    0.0000 O   0  0  0  0  0  0  0  0  0  0  0  0
    5.3658  -11.7700    0.0000 O   0  0  0  0  0  0  0  0  0  0  0  0
  1  2  2  0  0  0  0
  2  3  1  0  0  0  0
  3  4  2  0  0  0  0
  4  5  1  0  0  0  0
  5  6  2  0  0  0  0
  6  1  1  0  0  0  0
  4  7  1  0  0  0  0
  7  8  1  0  0  0  0
  8  9  2  0  0  0  0
  9 10  1  0  0  0  0
 10  5  1  0  0  0  0
  8 11  1  0  0  0  0
 12 13  2  0  0  0  0
 13  9  1  0  0  0  0
 12 14  1  0  0  0  0
 14 15  2  0  0  0  0
 15 16  1  0  0  0  0
 16 17  2  0  0  0  0
 17 13  1  0  0  0  0
 16 18  1  0  0  0  0
 15 19  1  0  0  0  0
  1 20  1  0  0  0  0
  3 21  1  0  0  0  0
  7 22  2  0  0  0  0
 23 11  1  1  0  0  0
 23 24  1  0  0  0  0
 24 25  1  0  0  0  0
 25 26  1  0  0  0  0
 26 27  1  0  0  0  0
 27 28  1  0  0  0  0
 28 23  1  0  0  0  0
 25 29  1  1  0  0  0
 27 30  1  1  0  0  0
 28 31  1  6  0  0  0
 26 32  1  6  0  0  0
 29 33  1  0  0  0  0
 31 34  1  0  0  0  0
 34 35  1  0  0  0  0
 34 36  2  0  0  0  0
 35 37  2  0  0  0  0
 37 38  1  0  0  0  0
 38 39  2  0  0  0  0
 39 40  1  0  0  0  0
 40 41  2  0  0  0  0
 41 42  1  0  0  0  0
 42 43  2  0  0  0  0
 43 38  1  0  0  0  0
 41 44  1  0  0  0  0
 40 45  1  0  0  0  0
 46 33  1  1  0  0  0
 46 47  1  0  0  0  0
 47 48  1  0  0  0  0
 48 49  1  0  0  0  0
 49 50  1  0  0  0  0
 50 51  1  0  0  0  0
 51 46  1  0  0  0  0
 49 52  1  1  0  0  0
 48 53  1  6  0  0  0
 50 54  1  6  0  0  0
 51 55  1  6  0  0  0
M  END
>  <cdx:fragmentId>
5

$$$$
