98567.cdx
  Mrv1902 05222410252D          

 23 24  0  0  0  0            999 V2000
    8.0374   -8.2984    0.0000 O   0  0  0  0  0  0  0  0  0  0  0  0
    7.6249   -7.5839    0.0000 C   0  0  2  0  0  0  0  0  0  0  0  0
    8.0374   -6.8695    0.0000 O   0  0  0  0  0  0  0  0  0  0  0  0
    7.6249   -6.1550    0.0000 C   0  0  1  0  0  0  0  0  0  0  0  0
    6.7999   -6.1550    0.0000 C   0  0  2  0  0  0  0  0  0  0  0  0
    6.3874   -6.8695    0.0000 C   0  0  1  0  0  0  0  0  0  0  0  0
    6.7999   -7.5839    0.0000 C   0  0  1  0  0  0  0  0  0  0  0  0
    8.0374   -5.4405    0.0000 C   0  0  0  0  0  0  0  0  0  0  0  0
    5.5624   -6.8695    0.0000 O   0  0  0  0  0  0  0  0  0  0  0  0
    6.3874   -5.4405    0.0000 O   0  0  0  0  0  0  0  0  0  0  0  0
    6.3874   -8.2984    0.0000 O   0  0  0  0  0  0  0  0  0  0  0  0
    7.6249   -4.7261    0.0000 O   0  0  0  0  0  0  0  0  0  0  0  0
    6.3929   -9.1300    0.0000 C   0  0  2  0  0  0  0  0  0  0  0  0
    5.6746   -9.5358    0.0000 O   0  0  0  0  0  0  0  0  0  0  0  0
    5.6670  -10.3608    0.0000 C   0  0  1  0  0  0  0  0  0  0  0  0
    6.3776  -10.7799    0.0000 C   0  0  2  0  0  0  0  0  0  0  0  0
    7.0959  -10.3740    0.0000 C   0  0  1  0  0  0  0  0  0  0  0  0
    7.1035   -9.5491    0.0000 C   0  0  1  0  0  0  0  0  0  0  0  0
    4.9487  -10.7667    0.0000 C   0  0  0  0  0  0  0  0  0  0  0  0
    7.8065  -10.7931    0.0000 O   0  0  0  0  0  0  0  0  0  0  0  0
    6.3700  -11.6049    0.0000 O   0  0  0  0  0  0  0  0  0  0  0  0
    7.8218   -9.1432    0.0000 O   0  0  0  0  0  0  0  0  0  0  0  0
    4.9411  -11.5916    0.0000 O   0  0  0  0  0  0  0  0  0  0  0  0
  2  1  1  1  0  0  0
  2  3  1  0  0  0  0
  3  4  1  0  0  0  0
  4  5  1  0  0  0  0
  5  6  1  0  0  0  0
  6  7  1  0  0  0  0
  7  2  1  0  0  0  0
  4  8  1  1  0  0  0
  6  9  1  1  0  0  0
  5 10  1  6  0  0  0
  7 11  1  6  0  0  0
  8 12  1  0  0  0  0
 13 14  1  0  0  0  0
 14 15  1  0  0  0  0
 15 16  1  0  0  0  0
 16 17  1  0  0  0  0
 17 18  1  0  0  0  0
 18 13  1  0  0  0  0
 15 19  1  1  0  0  0
 17 20  1  1  0  0  0
 16 21  1  6  0  0  0
 18 22  1  6  0  0  0
 19 23  1  0  0  0  0
 13 11  1  1  0  0  0
M  END
>  <cdx:fragmentId>
5

$$$$
