98566.cdx
  Mrv1902 05222410252D          

 23 23  0  0  0  0            999 V2000
    6.0819   -8.0580    0.0000 O   0  0  0  0  0  0  0  0  0  0  0  0
    5.6694   -8.7725    0.0000 C   0  0  0  0  0  0  0  0  0  0  0  0
    6.0819   -9.4870    0.0000 C   0  0  0  0  0  0  0  0  0  0  0  0
    6.9069   -9.4870    0.0000 C   0  0  0  0  0  0  0  0  0  0  0  0
    7.3194   -8.7725    0.0000 C   0  0  0  0  0  0  0  0  0  0  0  0
    7.3194  -10.2014    0.0000 C   0  0  0  0  0  0  0  0  0  0  0  0
    8.1444  -10.2014    0.0000 C   0  0  0  0  0  0  0  0  0  0  0  0
    8.5569   -9.4870    0.0000 C   0  0  0  0  0  0  0  0  0  0  0  0
    8.1444   -8.7725    0.0000 C   0  0  0  0  0  0  0  0  0  0  0  0
    5.6694  -10.2014    0.0000 C   0  0  0  0  0  0  0  0  0  0  0  0
    9.3819   -9.4870    0.0000 C   0  0  0  0  0  0  0  0  0  0  0  0
    8.9694  -10.2014    0.0000 O   0  0  0  0  0  0  0  0  0  0  0  0
    5.6694   -7.3436    0.0000 C   0  0  2  0  0  0  0  0  0  0  0  0
    6.0819   -6.6291    0.0000 O   0  0  0  0  0  0  0  0  0  0  0  0
    5.6694   -5.9146    0.0000 C   0  0  1  0  0  0  0  0  0  0  0  0
    4.8444   -5.9146    0.0000 C   0  0  2  0  0  0  0  0  0  0  0  0
    4.4319   -6.6291    0.0000 C   0  0  1  0  0  0  0  0  0  0  0  0
    4.8444   -7.3436    0.0000 C   0  0  1  0  0  0  0  0  0  0  0  0
    6.0819   -5.2001    0.0000 C   0  0  0  0  0  0  0  0  0  0  0  0
    3.6069   -6.6291    0.0000 O   0  0  0  0  0  0  0  0  0  0  0  0
    4.4319   -5.2001    0.0000 O   0  0  0  0  0  0  0  0  0  0  0  0
    4.4319   -8.0580    0.0000 O   0  0  0  0  0  0  0  0  0  0  0  0
    5.6694   -4.4857    0.0000 O   0  0  0  0  0  0  0  0  0  0  0  0
  1  2  1  0  0  0  0
  2  3  1  0  0  0  0
  3  4  2  0  0  0  0
  4  6  1  0  0  0  0
  6  7  1  0  0  0  0
  7  8  1  0  0  0  0
  8  9  1  0  0  0  0
  9  5  2  0  0  0  0
  3 10  1  0  0  0  0
  8 11  1  0  0  0  0
  8 12  1  0  0  0  0
 13  1  1  1  0  0  0
 13 14  1  0  0  0  0
 14 15  1  0  0  0  0
 15 16  1  0  0  0  0
 16 17  1  0  0  0  0
 17 18  1  0  0  0  0
 18 13  1  0  0  0  0
 15 19  1  1  0  0  0
 17 20  1  1  0  0  0
 16 21  1  6  0  0  0
 18 22  1  6  0  0  0
 19 23  1  0  0  0  0
M  END
>  <cdx:fragmentId>
5

$$$$
