98568.cdx
  Mrv1902 05222410212D          

 22 24  0  0  0  0            999 V2000
    4.3087   -8.3187    0.0000 C   0  0  0  0  0  0  0  0  0  0  0  0
    4.3087   -9.1438    0.0000 C   0  0  0  0  0  0  0  0  0  0  0  0
    5.0231   -9.5563    0.0000 C   0  0  0  0  0  0  0  0  0  0  0  0
    5.7376   -9.1438    0.0000 C   0  0  0  0  0  0  0  0  0  0  0  0
    5.7376   -8.3187    0.0000 C   0  0  0  0  0  0  0  0  0  0  0  0
    5.0231   -7.9063    0.0000 C   0  0  0  0  0  0  0  0  0  0  0  0
    6.4521   -9.5563    0.0000 C   0  0  0  0  0  0  0  0  0  0  0  0
    7.1666   -9.1438    0.0000 C   0  0  0  0  0  0  0  0  0  0  0  0
    7.1666   -8.3187    0.0000 C   0  0  0  0  0  0  0  0  0  0  0  0
    6.4521   -7.9063    0.0000 C   0  0  0  0  0  0  0  0  0  0  0  0
    7.8810   -9.5563    0.0000 C   0  0  0  0  0  0  0  0  0  0  0  0
    8.5955   -9.1438    0.0000 C   0  0  0  0  0  0  0  0  0  0  0  0
    8.5955   -8.3187    0.0000 C   0  0  0  0  0  0  0  0  0  0  0  0
    7.8810   -7.9063    0.0000 C   0  0  0  0  0  0  0  0  0  0  0  0
    5.0231   -7.0812    0.0000 O   0  0  0  0  0  0  0  0  0  0  0  0
    6.4521   -7.0812    0.0000 O   0  0  0  0  0  0  0  0  0  0  0  0
    6.4521  -10.3812    0.0000 O   0  0  0  0  0  0  0  0  0  0  0  0
    7.8810   -7.0812    0.0000 C   0  0  0  0  0  0  0  0  0  0  0  0
    9.3100   -9.5563    0.0000 O   0  0  0  0  0  0  0  0  0  0  0  0
    9.3100   -7.9063    0.0000 C   0  0  0  0  0  0  0  0  0  0  0  0
   10.0244   -8.3187    0.0000 O   0  0  0  0  0  0  0  0  0  0  0  0
    9.3100   -7.0812    0.0000 O   0  0  0  0  0  0  0  0  0  0  0  0
  1  2  2  0  0  0  0
  2  3  1  0  0  0  0
  3  4  2  0  0  0  0
  4  5  1  0  0  0  0
  5  6  2  0  0  0  0
  6  1  1  0  0  0  0
  4  7  1  0  0  0  0
  7  8  1  0  0  0  0
  8  9  2  0  0  0  0
  9 10  1  0  0  0  0
 10  5  1  0  0  0  0
  8 11  1  0  0  0  0
 11 12  2  0  0  0  0
 12 13  1  0  0  0  0
 13 14  2  0  0  0  0
 14  9  1  0  0  0  0
  6 15  1  0  0  0  0
 10 16  2  0  0  0  0
  7 17  2  0  0  0  0
 14 18  1  0  0  0  0
 12 19  1  0  0  0  0
 13 20  1  0  0  0  0
 20 21  1  0  0  0  0
 20 22  2  0  0  0  0
M  END
>  <cdx:fragmentId>
5

$$$$
