98564.cdx
  Mrv1902 05222410252D          

 42 45  0  0  0  0            999 V2000
    8.1174   -7.7550    0.0000 C   0  0  0  0  0  0  0  0  0  0  0  0
    8.1174   -8.5800    0.0000 C   0  0  0  0  0  0  0  0  0  0  0  0
    8.8319   -8.9925    0.0000 C   0  0  1  0  0  0  0  0  0  0  0  0
    9.5464   -8.5800    0.0000 O   0  0  0  0  0  0  0  0  0  0  0  0
    9.5464   -7.7550    0.0000 C   0  0  0  0  0  0  0  0  0  0  0  0
    8.8319   -7.3425    0.0000 C   0  0  0  0  0  0  0  0  0  0  0  0
    7.3328   -7.5001    0.0000 C   0  0  0  0  0  0  0  0  0  0  0  0
    6.8479   -8.1675    0.0000 C   0  0  0  0  0  0  0  0  0  0  0  0
    7.3328   -8.8349    0.0000 C   0  0  2  0  0  0  0  0  0  0  0  0
    8.8319   -6.5175    0.0000 C   0  0  0  0  0  0  0  0  0  0  0  0
    8.1174   -6.1050    0.0000 O   0  0  0  0  0  0  0  0  0  0  0  0
    9.5464   -6.1050    0.0000 O   0  0  0  0  0  0  0  0  0  0  0  0
    9.5464   -5.2800    0.0000 C   0  0  0  0  0  0  0  0  0  0  0  0
    8.8319   -9.8175    0.0000 O   0  0  0  0  0  0  0  0  0  0  0  0
    8.2485  -10.4009    0.0000 C   0  0  2  0  0  0  0  0  0  0  0  0
    7.4516  -10.1873    0.0000 O   0  0  0  0  0  0  0  0  0  0  0  0
    6.8683  -10.7707    0.0000 C   0  0  1  0  0  0  0  0  0  0  0  0
    7.0818  -11.5676    0.0000 C   0  0  2  0  0  0  0  0  0  0  0  0
    7.8787  -11.7811    0.0000 C   0  0  1  0  0  0  0  0  0  0  0  0
    8.4621  -11.1978    0.0000 C   0  0  1  0  0  0  0  0  0  0  0  0
    6.0714  -10.5572    0.0000 C   0  0  0  0  0  0  0  0  0  0  0  0
    8.0922  -12.5780    0.0000 O   0  0  0  0  0  0  0  0  0  0  0  0
    6.4984  -12.1510    0.0000 O   0  0  0  0  0  0  0  0  0  0  0  0
    9.2590  -11.4113    0.0000 O   0  0  0  0  0  0  0  0  0  0  0  0
    5.4880  -11.1405    0.0000 O   0  0  0  0  0  0  0  0  0  0  0  0
    7.0779   -6.7154    0.0000 O   0  0  0  0  0  0  0  0  0  0  0  0
    6.6183   -9.2474    0.0000 C   0  0  0  0  0  0  0  0  0  0  0  0
    7.3328   -9.6599    0.0000 C   0  0  0  0  0  0  0  0  0  0  0  0
    5.9039   -8.8349    0.0000 C   0  0  0  0  0  0  0  0  0  0  0  0
    6.6183  -10.0724    0.0000 O   0  0  0  0  0  0  0  0  0  0  0  0
    7.0485   -5.8881    0.0000 C   0  0  0  0  0  0  0  0  0  0  0  0
    6.3188   -5.5032    0.0000 C   0  0  0  0  0  0  0  0  0  0  0  0
    6.2872   -4.6788    0.0000 C   0  0  0  0  0  0  0  0  0  0  0  0
    5.5575   -4.2939    0.0000 C   0  0  0  0  0  0  0  0  0  0  0  0
    4.8593   -4.7334    0.0000 C   0  0  0  0  0  0  0  0  0  0  0  0
    4.8909   -5.5578    0.0000 C   0  0  0  0  0  0  0  0  0  0  0  0
    5.6206   -5.9427    0.0000 C   0  0  0  0  0  0  0  0  0  0  0  0
    4.1296   -4.3486    0.0000 O   0  0  0  0  0  0  0  0  0  0  0  0
    5.5259   -3.4695    0.0000 O   0  0  0  0  0  0  0  0  0  0  0  0
    4.7962   -3.0846    0.0000 C   0  0  0  0  0  0  0  0  0  0  0  0
    4.1927   -5.9973    0.0000 O   0  0  0  0  0  0  0  0  0  0  0  0
    3.4630   -5.6125    0.0000 C   0  0  0  0  0  0  0  0  0  0  0  0
  1  2  1  0  0  0  0
  2  3  1  0  0  0  0
  3  4  1  0  0  0  0
  4  5  1  0  0  0  0
  5  6  2  0  0  0  0
  6  1  1  0  0  0  0
  1  7  1  0  0  0  0
  7  8  1  0  0  0  0
  8  9  1  0  0  0  0
  9  2  1  0  0  0  0
  6 10  1  0  0  0  0
 10 11  2  0  0  0  0
 10 12  1  0  0  0  0
 12 13  1  0  0  0  0
  3 14  1  1  0  0  0
 15 14  1  1  0  0  0
 15 16  1  0  0  0  0
 16 17  1  0  0  0  0
 17 18  1  0  0  0  0
 18 19  1  0  0  0  0
 19 20  1  0  0  0  0
 20 15  1  0  0  0  0
 17 21  1  1  0  0  0
 19 22  1  1  0  0  0
 18 23  1  6  0  0  0
 20 24  1  6  0  0  0
 21 25  1  0  0  0  0
  7 26  1  0  0  0  0
  9 27  1  0  0  0  0
  9 28  1  6  0  0  0
 27 29  1  0  0  0  0
 27 30  2  0  0  0  0
 31 32  1  0  0  0  0
 32 33  2  0  0  0  0
 33 34  1  0  0  0  0
 34 35  2  0  0  0  0
 35 36  1  0  0  0  0
 36 37  2  0  0  0  0
 37 32  1  0  0  0  0
 35 38  1  0  0  0  0
 34 39  1  0  0  0  0
 39 40  1  0  0  0  0
 36 41  1  0  0  0  0
 41 42  1  0  0  0  0
 31 26  1  0  0  0  0
M  END
>  <cdx:fragmentId>
5

$$$$
