98577.cdx
  Mrv1902 05222410232D          

 23 25  0  0  0  0            999 V2000
    4.3362   -8.0987    0.0000 C   0  0  0  0  0  0  0  0  0  0  0  0
    4.3362   -8.9238    0.0000 C   0  0  0  0  0  0  0  0  0  0  0  0
    5.0506   -9.3362    0.0000 C   0  0  0  0  0  0  0  0  0  0  0  0
    5.7651   -8.9238    0.0000 C   0  0  0  0  0  0  0  0  0  0  0  0
    5.7651   -8.0987    0.0000 C   0  0  0  0  0  0  0  0  0  0  0  0
    5.0506   -7.6863    0.0000 C   0  0  0  0  0  0  0  0  0  0  0  0
    6.5497   -9.1787    0.0000 C   0  0  2  0  0  0  0  0  0  0  0  0
    7.0347   -8.5113    0.0000 C   0  0  1  0  0  0  0  0  0  0  0  0
    6.5497   -7.8438    0.0000 O   0  0  0  0  0  0  0  0  0  0  0  0
    7.8597   -8.5113    0.0000 C   0  0  0  0  0  0  0  0  0  0  0  0
    8.2722   -7.7968    0.0000 C   0  0  0  0  0  0  0  0  0  0  0  0
    9.0972   -7.7968    0.0000 C   0  0  0  0  0  0  0  0  0  0  0  0
    9.5097   -7.0823    0.0000 C   0  0  0  0  0  0  0  0  0  0  0  0
    9.0972   -6.3678    0.0000 C   0  0  0  0  0  0  0  0  0  0  0  0
    8.2722   -6.3678    0.0000 C   0  0  0  0  0  0  0  0  0  0  0  0
    7.8597   -7.0823    0.0000 C   0  0  0  0  0  0  0  0  0  0  0  0
    3.6217   -7.6863    0.0000 O   0  0  0  0  0  0  0  0  0  0  0  0
    9.5097   -8.5112    0.0000 O   0  0  0  0  0  0  0  0  0  0  0  0
    9.5097   -5.6534    0.0000 O   0  0  0  0  0  0  0  0  0  0  0  0
    9.0972   -4.9389    0.0000 C   0  0  0  0  0  0  0  0  0  0  0  0
    7.6180   -9.0946    0.0000 H   0  0  0  0  0  0  0  0  0  0  0  0
    6.3362   -9.9756    0.0000 O   0  0  0  0  0  0  0  0  0  0  0  0
    7.2642   -9.5912    0.0000 H   0  0  0  0  0  0  0  0  0  0  0  0
  1  2  2  0  0  0  0
  2  3  1  0  0  0  0
  3  4  2  0  0  0  0
  4  5  1  0  0  0  0
  5  6  2  0  0  0  0
  6  1  1  0  0  0  0
  4  7  1  0  0  0  0
  7  8  1  0  0  0  0
  8  9  1  0  0  0  0
  9  5  1  0  0  0  0
  8 10  1  0  0  0  0
 10 11  1  0  0  0  0
 11 12  2  0  0  0  0
 12 13  1  0  0  0  0
 13 14  2  0  0  0  0
 14 15  1  0  0  0  0
 15 16  2  0  0  0  0
 16 11  1  0  0  0  0
  1 17  1  0  0  0  0
 12 18  1  0  0  0  0
 14 19  1  0  0  0  0
 19 20  1  0  0  0  0
  8 21  1  6  0  0  0
  7 22  1  6  0  0  0
  7 23  1  1  0  0  0
M  END
>  <cdx:fragmentId>
5

$$$$
