untitled.cdx
  Mrv1902 05222410252D          

 27 30  0  0  0  0            999 V2000
    4.7070   -3.4246    0.0000 C   0  0  0  0  0  0  0  0  0  0  0  0
    5.4215   -3.0121    0.0000 C   0  0  0  0  0  0  0  0  0  0  0  0
    6.1360   -3.4246    0.0000 C   0  0  0  0  0  0  0  0  0  0  0  0
    6.8504   -3.0121    0.0000 C   0  0  0  0  0  0  0  0  0  0  0  0
    6.8504   -2.1871    0.0000 C   0  0  0  0  0  0  0  0  0  0  0  0
    7.5649   -1.7746    0.0000 C   0  0  0  0  0  0  0  0  0  0  0  0
    8.2794   -2.1871    0.0000 C   0  0  0  0  0  0  0  0  0  0  0  0
    8.2794   -3.0121    0.0000 C   0  0  0  0  0  0  0  0  0  0  0  0
    7.5649   -3.4246    0.0000 C   0  0  0  0  0  0  0  0  0  0  0  0
    7.5649   -4.2496    0.0000 C   0  0  0  0  0  0  0  0  0  0  0  0
    6.8504   -4.6621    0.0000 N   0  0  0  0  0  0  0  0  0  0  0  0
    6.1360   -4.2496    0.0000 C   0  0  0  0  0  0  0  0  0  0  0  0
    5.4215   -4.6621    0.0000 C   0  0  0  0  0  0  0  0  0  0  0  0
    4.7070   -4.2496    0.0000 C   0  0  0  0  0  0  0  0  0  0  0  0
    3.9926   -4.6621    0.0000 C   0  0  0  0  0  0  0  0  0  0  0  0
    3.2781   -4.2496    0.0000 C   0  0  0  0  0  0  0  0  0  0  0  0
    2.4935   -4.5045    0.0000 O   0  0  0  0  0  0  0  0  0  0  0  0
    2.0085   -3.8371    0.0000 C   0  0  0  0  0  0  0  0  0  0  0  0
    2.4935   -3.1696    0.0000 O   0  0  0  0  0  0  0  0  0  0  0  0
    3.2781   -3.4246    0.0000 C   0  0  0  0  0  0  0  0  0  0  0  0
    3.9926   -3.0121    0.0000 C   0  0  0  0  0  0  0  0  0  0  0  0
    5.4215   -2.1871    0.0000 O   0  0  0  0  0  0  0  0  0  0  0  0
    6.8504   -5.4871    0.0000 C   0  0  0  0  0  0  0  0  0  0  0  0
    8.9939   -3.4246    0.0000 O   0  0  0  0  0  0  0  0  0  0  0  0
    9.7083   -3.0121    0.0000 C   0  0  0  0  0  0  0  0  0  0  0  0
    8.9939   -1.7746    0.0000 O   0  0  0  0  0  0  0  0  0  0  0  0
    9.7083   -2.1871    0.0000 C   0  0  0  0  0  0  0  0  0  0  0  0
  1  2  1  0  0  0  0
  2  3  1  0  0  0  0
  3  4  1  0  0  0  0
  4  5  1  0  0  0  0
  5  6  2  0  0  0  0
  6  7  1  0  0  0  0
  7  8  2  0  0  0  0
  8  9  1  0  0  0  0
  9 10  1  0  0  0  0
 10 11  1  0  0  0  0
 11 12  1  0  0  0  0
 12 13  1  0  0  0  0
 13 14  1  0  0  0  0
 14 15  2  0  0  0  0
 15 16  1  0  0  0  0
 16 17  1  0  0  0  0
 17 18  1  0  0  0  0
 18 19  1  0  0  0  0
 19 20  1  0  0  0  0
 20 21  1  0  0  0  0
  1 21  2  0  0  0  0
  1 14  1  0  0  0  0
 16 20  2  0  0  0  0
  4  9  2  0  0  0  0
  2 22  2  0  0  0  0
 11 23  1  0  0  0  0
 24 25  1  0  0  0  0
  8 24  1  0  0  0  0
 26 27  1  0  0  0  0
  7 26  1  0  0  0  0
M  END
>  <cdx:groupId>
86

>  <cdx:fragmentId>
5

$$$$
