98571.cdx
  Mrv1902 05222410252D          

 63 69  0  0  0  0            999 V2000
    9.6286  -10.3072    0.0000 O   0  0  0  0  0  0  0  0  0  0  0  0
    6.7707  -11.1322    0.0000 O   0  0  0  0  0  0  0  0  0  0  0  0
    5.3418   -8.6572    0.0000 O   0  0  0  0  0  0  0  0  0  0  0  0
   11.7720   -7.4197    0.0000 O   0  0  0  0  0  0  0  0  0  0  0  0
    9.6286   -7.8322    0.0000 C   0  0  0  0  0  0  0  0  0  0  0  0
   10.3431   -7.4197    0.0000 C   0  0  0  0  0  0  0  0  0  0  0  0
   11.0575   -7.8322    0.0000 C   0  0  0  0  0  0  0  0  0  0  0  0
   11.0575   -8.6572    0.0000 C   0  0  0  0  0  0  0  0  0  0  0  0
   10.3431   -9.0697    0.0000 C   0  0  0  0  0  0  0  0  0  0  0  0
    9.6286   -8.6572    0.0000 C   0  0  0  0  0  0  0  0  0  0  0  0
    8.1997  -11.1322    0.0000 O   0  0  0  0  0  0  0  0  0  0  0  0
    8.1997   -8.6572    0.0000 O   0  0  0  0  0  0  0  0  0  0  0  0
    7.4852   -9.0697    0.0000 C   0  0  0  0  0  0  0  0  0  0  0  0
    6.7707   -8.6572    0.0000 C   0  0  0  0  0  0  0  0  0  0  0  0
    6.0563   -9.0697    0.0000 C   0  0  0  0  0  0  0  0  0  0  0  0
    6.0563   -9.8947    0.0000 C   0  0  0  0  0  0  0  0  0  0  0  0
    6.7707  -10.3072    0.0000 C   0  0  0  0  0  0  0  0  0  0  0  0
    7.4852   -9.8947    0.0000 C   0  0  0  0  0  0  0  0  0  0  0  0
    8.1997  -10.3072    0.0000 C   0  0  0  0  0  0  0  0  0  0  0  0
    8.9141   -9.8947    0.0000 C   0  0  0  0  0  0  0  0  0  0  0  0
    8.9141   -9.0697    0.0000 C   0  0  0  0  0  0  0  0  0  0  0  0
    5.3456   -7.8322    0.0000 C   0  0  2  0  0  0  0  0  0  0  0  0
    6.0620   -7.4231    0.0000 O   0  0  0  0  0  0  0  0  0  0  0  0
    6.0658   -6.5981    0.0000 C   0  0  1  0  0  0  0  0  0  0  0  0
    5.3533   -6.1823    0.0000 C   0  0  2  0  0  0  0  0  0  0  0  0
    4.6369   -6.5914    0.0000 C   0  0  1  0  0  0  0  0  0  0  0  0
    4.6331   -7.4164    0.0000 C   0  0  1  0  0  0  0  0  0  0  0  0
    6.7822   -6.1889    0.0000 C   0  0  0  0  0  0  0  0  0  0  0  0
    3.9243   -6.1756    0.0000 O   0  0  0  0  0  0  0  0  0  0  0  0
    5.3571   -5.3573    0.0000 O   0  0  0  0  0  0  0  0  0  0  0  0
    3.9167   -7.8256    0.0000 O   0  0  0  0  0  0  0  0  0  0  0  0
    6.7860   -5.3639    0.0000 O   0  0  0  0  0  0  0  0  0  0  0  0
    3.9237  -10.2988    0.0000 C   0  0  1  0  0  0  0  0  0  0  0  0
    3.9237  -11.1237    0.0000 C   0  0  1  0  0  0  0  0  0  0  0  0
    4.6381  -11.5362    0.0000 C   0  0  2  0  0  0  0  0  0  0  0  0
    5.3526  -11.1237    0.0000 C   0  0  2  0  0  0  0  0  0  0  0  0
    5.3526  -10.2988    0.0000 C   0  0  1  0  0  0  0  0  0  0  0  0
    4.6381   -9.8863    0.0000 O   0  0  0  0  0  0  0  0  0  0  0  0
    3.2092   -9.8863    0.0000 C   0  0  0  0  0  0  0  0  0  0  0  0
    4.6381  -12.3613    0.0000 O   0  0  0  0  0  0  0  0  0  0  0  0
    6.0671  -11.5362    0.0000 O   0  0  0  0  0  0  0  0  0  0  0  0
    3.2092  -11.5362    0.0000 O   0  0  0  0  0  0  0  0  0  0  0  0
    6.0614  -14.8374    0.0000 O   0  0  0  0  0  0  0  0  0  0  0  0
    7.4902  -14.0120    0.0000 O   0  0  0  0  0  0  0  0  0  0  0  0
    7.4898  -12.3620    0.0000 O   0  0  0  0  0  0  0  0  0  0  0  0
    5.3464  -12.7751    0.0000 O   0  0  0  0  0  0  0  0  0  0  0  0
    5.3467  -13.6001    0.0000 C   0  0  0  0  0  0  0  0  0  0  0  0
    6.0612  -14.0124    0.0000 C   0  0  0  0  0  0  0  0  0  0  0  0
    6.7756  -13.5997    0.0000 C   0  0  0  0  0  0  0  0  0  0  0  0
    6.7754  -12.7747    0.0000 C   0  0  0  0  0  0  0  0  0  0  0  0
    6.0608  -12.3624    0.0000 C   0  0  0  0  0  0  0  0  0  0  0  0
    7.5024   -4.9547    0.0000 C   0  0  0  0  0  0  0  0  0  0  0  0
    7.5062   -4.1297    0.0000 C   0  0  0  0  0  0  0  0  0  0  0  0
    8.2149   -5.3705    0.0000 O   0  0  0  0  0  0  0  0  0  0  0  0
    8.2197   -3.7155    0.0000 C   0  0  0  0  0  0  0  0  0  0  0  0
    8.2197   -2.8905    0.0000 C   0  0  0  0  0  0  0  0  0  0  0  0
    7.5062   -2.4797    0.0000 C   0  0  0  0  0  0  0  0  0  0  0  0
    6.7927   -2.8905    0.0000 C   0  0  0  0  0  0  0  0  0  0  0  0
    6.7927   -3.7155    0.0000 C   0  0  0  0  0  0  0  0  0  0  0  0
    6.0785   -2.4776    0.0000 O   0  0  0  0  0  0  0  0  0  0  0  0
    7.5062   -1.6547    0.0000 O   0  0  0  0  0  0  0  0  0  0  0  0
    8.9339   -2.4776    0.0000 O   0  0  0  0  0  0  0  0  0  0  0  0
    5.3526   -9.4738    0.0000 H   0  0  0  0  0  0  0  0  0  0  0  0
 20  1  1  0  0  0  0
 17  2  1  0  0  0  0
 15  3  1  0  0  0  0
 21 10  1  0  0  0  0
  7  4  1  0  0  0  0
 10  5  2  0  0  0  0
  6  5  1  0  0  0  0
  7  6  2  0  0  0  0
  8  7  1  0  0  0  0
  9  8  2  0  0  0  0
 10  9  1  0  0  0  0
 19 11  2  0  0  0  0
 21 12  1  0  0  0  0
 13 12  1  0  0  0  0
 18 13  2  0  0  0  0
 14 13  1  0  0  0  0
 15 14  2  0  0  0  0
 16 15  1  0  0  0  0
 17 16  2  0  0  0  0
 18 17  1  0  0  0  0
 19 18  1  0  0  0  0
 20 19  1  0  0  0  0
 21 20  2  0  0  0  0
 22  3  1  1  0  0  0
 22 23  1  0  0  0  0
 23 24  1  0  0  0  0
 24 25  1  0  0  0  0
 25 26  1  0  0  0  0
 26 27  1  0  0  0  0
 27 22  1  0  0  0  0
 24 28  1  1  0  0  0
 26 29  1  1  0  0  0
 25 30  1  6  0  0  0
 27 31  1  6  0  0  0
 28 32  1  0  0  0  0
 33 34  1  0  0  0  0
 34 35  1  0  0  0  0
 35 36  1  0  0  0  0
 36 37  1  0  0  0  0
 37 38  1  0  0  0  0
 38 33  1  0  0  0  0
 33 39  1  6  0  0  0
 35 40  1  6  0  0  0
 36 41  1  6  0  0  0
 34 42  1  1  0  0  0
 37 16  1  0  0  0  0
 48 43  1  0  0  0  0
 49 44  1  0  0  0  0
 50 45  1  0  0  0  0
 46 51  1  0  0  0  0
 47 46  1  0  0  0  0
 48 47  1  0  0  0  0
 49 48  1  0  0  0  0
 50 49  1  0  0  0  0
 51 50  1  0  0  0  0
 51 41  1  0  0  0  0
 32 52  1  0  0  0  0
 52 53  1  0  0  0  0
 52 54  2  0  0  0  0
 53 55  2  0  0  0  0
 55 56  1  0  0  0  0
 56 57  2  0  0  0  0
 57 58  1  0  0  0  0
 58 59  2  0  0  0  0
 59 53  1  0  0  0  0
 58 60  1  0  0  0  0
 57 61  1  0  0  0  0
 56 62  1  0  0  0  0
 37 63  1  6  0  0  0
M  END
>  <cdx:fragmentId>
5

$$$$
