9857.cdx
  Mrv1902 05222410252D          

 20 20  0  0  0  0            999 V2000
    3.3652   -7.0812    0.0000 C   0  0  0  0  0  0  0  0  0  0  0  0
    3.3652   -7.9063    0.0000 C   0  0  0  0  0  0  0  0  0  0  0  0
    4.0796   -8.3187    0.0000 C   0  0  0  0  0  0  0  0  0  0  0  0
    4.7941   -7.9063    0.0000 C   0  0  0  0  0  0  0  0  0  0  0  0
    4.7941   -7.0812    0.0000 C   0  0  0  0  0  0  0  0  0  0  0  0
    4.0796   -6.6688    0.0000 C   0  0  0  0  0  0  0  0  0  0  0  0
    2.6507   -8.3187    0.0000 O   0  0  0  0  0  0  0  0  0  0  0  0
    5.5086   -6.6688    0.0000 C   0  0  0  0  0  0  0  0  0  0  0  0
    6.2230   -7.0812    0.0000 C   0  0  0  0  0  0  0  0  0  0  0  0
    6.9375   -6.6688    0.0000 C   0  0  0  0  0  0  0  0  0  0  0  0
    7.6520   -7.0812    0.0000 C   0  0  0  0  0  0  0  0  0  0  0  0
    8.3665   -6.6688    0.0000 C   0  0  0  0  0  0  0  0  0  0  0  0
    6.9375   -5.8438    0.0000 O   0  0  0  0  0  0  0  0  0  0  0  0
    9.0809   -7.0812    0.0000 C   0  0  0  0  0  0  0  0  0  0  0  0
    9.7954   -6.6687    0.0000 C   0  0  0  0  0  0  0  0  0  0  0  0
   10.5099   -7.0812    0.0000 C   0  0  0  0  0  0  0  0  0  0  0  0
   11.2243   -6.6687    0.0000 C   0  0  0  0  0  0  0  0  0  0  0  0
   11.9388   -7.0812    0.0000 C   0  0  0  0  0  0  0  0  0  0  0  0
    2.6507   -6.6688    0.0000 O   0  0  0  0  0  0  0  0  0  0  0  0
    1.9362   -7.0812    0.0000 C   0  0  0  0  0  0  0  0  0  0  0  0
  1  2  2  0  0  0  0
  2  3  1  0  0  0  0
  3  4  2  0  0  0  0
  4  5  1  0  0  0  0
  5  6  2  0  0  0  0
  6  1  1  0  0  0  0
  2  7  1  0  0  0  0
  5  8  1  0  0  0  0
  8  9  1  0  0  0  0
  9 10  1  0  0  0  0
 10 11  1  0  0  0  0
 11 12  1  0  0  0  0
 10 13  1  0  0  0  0
 12 14  1  0  0  0  0
 14 15  1  0  0  0  0
 15 16  1  0  0  0  0
 16 17  1  0  0  0  0
 17 18  1  0  0  0  0
  1 19  1  0  0  0  0
 19 20  1  0  0  0  0
M  END
>  <cdx:fragmentId>
5

$$$$
