98575.cdx
  Mrv1902 05222410242D          

 25 26  0  0  0  0            999 V2000
    3.7312   -7.2600    0.0000 C   0  0  0  0  0  0  0  0  0  0  0  0
    3.7312   -8.0850    0.0000 C   0  0  0  0  0  0  0  0  0  0  0  0
    4.4456   -8.4975    0.0000 C   0  0  0  0  0  0  0  0  0  0  0  0
    5.1601   -8.0850    0.0000 C   0  0  0  0  0  0  0  0  0  0  0  0
    5.1601   -7.2600    0.0000 C   0  0  0  0  0  0  0  0  0  0  0  0
    4.4456   -6.8475    0.0000 C   0  0  0  0  0  0  0  0  0  0  0  0
    3.0167   -6.8475    0.0000 O   0  0  0  0  0  0  0  0  0  0  0  0
    3.0167   -8.4975    0.0000 O   0  0  0  0  0  0  0  0  0  0  0  0
    5.8746   -8.4975    0.0000 C   0  0  1  0  0  0  0  0  0  0  0  0
    6.5891   -8.0850    0.0000 C   0  0  1  0  0  0  0  0  0  0  0  0
    7.3035   -8.4975    0.0000 C   0  0  0  0  0  0  0  0  0  0  0  0
    8.0180   -8.0850    0.0000 C   0  0  0  0  0  0  0  0  0  0  0  0
    8.7325   -7.6725    0.0000 C   0  0  0  0  0  0  0  0  0  0  0  0
    9.4469   -7.2600    0.0000 C   0  0  0  0  0  0  0  0  0  0  0  0
   10.1614   -7.6725    0.0000 C   0  0  0  0  0  0  0  0  0  0  0  0
   10.8759   -7.2600    0.0000 C   0  0  0  0  0  0  0  0  0  0  0  0
   10.8759   -6.4350    0.0000 C   0  0  0  0  0  0  0  0  0  0  0  0
   10.1614   -6.0225    0.0000 C   0  0  0  0  0  0  0  0  0  0  0  0
    9.4469   -6.4350    0.0000 C   0  0  0  0  0  0  0  0  0  0  0  0
   11.5904   -6.0225    0.0000 O   0  0  0  0  0  0  0  0  0  0  0  0
   11.5904   -7.6725    0.0000 O   0  0  0  0  0  0  0  0  0  0  0  0
    5.8746   -7.6725    0.0000 O   0  0  0  0  0  0  0  0  0  0  0  0
    5.8746   -9.3225    0.0000 H   0  0  0  0  0  0  0  0  0  0  0  0
    6.5891   -7.2600    0.0000 O   0  0  0  0  0  0  0  0  0  0  0  0
    6.5891   -8.9100    0.0000 H   0  0  0  0  0  0  0  0  0  0  0  0
  1  2  2  0  0  0  0
  2  3  1  0  0  0  0
  3  4  2  0  0  0  0
  4  5  1  0  0  0  0
  5  6  2  0  0  0  0
  6  1  1  0  0  0  0
  1  7  1  0  0  0  0
  2  8  1  0  0  0  0
  4  9  1  0  0  0  0
  9 10  1  0  0  0  0
 10 11  1  0  0  0  0
 11 12  1  0  0  0  0
 12 13  3  0  0  0  0
 13 14  1  0  0  0  0
 14 15  2  0  0  0  0
 15 16  1  0  0  0  0
 16 17  2  0  0  0  0
 17 18  1  0  0  0  0
 18 19  2  0  0  0  0
 19 14  1  0  0  0  0
 17 20  1  0  0  0  0
 16 21  1  0  0  0  0
  9 22  1  1  0  0  0
  9 23  1  1  0  0  0
 10 24  1  1  0  0  0
 10 25  1  1  0  0  0
M  END
>  <cdx:fragmentId>
5

$$$$
