98572.cdx
  Mrv1902 05222410252D          

 63 69  0  0  0  0            999 V2000
   12.7620   -7.4747    0.0000 O   0  0  0  0  0  0  0  0  0  0  0  0
   12.7620   -5.8247    0.0000 O   0  0  0  0  0  0  0  0  0  0  0  0
   10.6186   -6.2372    0.0000 C   0  0  0  0  0  0  0  0  0  0  0  0
   11.3331   -5.8247    0.0000 C   0  0  0  0  0  0  0  0  0  0  0  0
   12.0475   -6.2372    0.0000 C   0  0  0  0  0  0  0  0  0  0  0  0
   12.0475   -7.0622    0.0000 C   0  0  0  0  0  0  0  0  0  0  0  0
   11.3331   -7.4747    0.0000 C   0  0  0  0  0  0  0  0  0  0  0  0
   10.6186   -7.0622    0.0000 C   0  0  0  0  0  0  0  0  0  0  0  0
    7.7607   -9.5372    0.0000 O   0  0  0  0  0  0  0  0  0  0  0  0
    6.3318   -7.0622    0.0000 O   0  0  0  0  0  0  0  0  0  0  0  0
    9.1897   -9.5372    0.0000 O   0  0  0  0  0  0  0  0  0  0  0  0
    9.1897   -7.0622    0.0000 O   0  0  0  0  0  0  0  0  0  0  0  0
    8.4752   -7.4747    0.0000 C   0  0  0  0  0  0  0  0  0  0  0  0
    7.7607   -7.0622    0.0000 C   0  0  0  0  0  0  0  0  0  0  0  0
    7.0463   -7.4747    0.0000 C   0  0  0  0  0  0  0  0  0  0  0  0
    7.0463   -8.2997    0.0000 C   0  0  0  0  0  0  0  0  0  0  0  0
    7.7607   -8.7122    0.0000 C   0  0  0  0  0  0  0  0  0  0  0  0
    8.4752   -8.2997    0.0000 C   0  0  0  0  0  0  0  0  0  0  0  0
    9.1897   -8.7122    0.0000 C   0  0  0  0  0  0  0  0  0  0  0  0
    9.9041   -8.2997    0.0000 C   0  0  0  0  0  0  0  0  0  0  0  0
    9.9041   -7.4747    0.0000 C   0  0  0  0  0  0  0  0  0  0  0  0
    4.8896   -8.7117    0.0000 C   0  0  1  0  0  0  0  0  0  0  0  0
    4.8896   -9.5367    0.0000 C   0  0  1  0  0  0  0  0  0  0  0  0
    5.6041   -9.9492    0.0000 C   0  0  2  0  0  0  0  0  0  0  0  0
    6.3186   -9.5367    0.0000 C   0  0  2  0  0  0  0  0  0  0  0  0
    6.3186   -8.7117    0.0000 C   0  0  1  0  0  0  0  0  0  0  0  0
    5.6041   -8.2992    0.0000 O   0  0  0  0  0  0  0  0  0  0  0  0
    4.1752   -8.2992    0.0000 C   0  0  0  0  0  0  0  0  0  0  0  0
    5.6041  -10.7742    0.0000 O   0  0  0  0  0  0  0  0  0  0  0  0
    7.0331   -9.9492    0.0000 O   0  0  0  0  0  0  0  0  0  0  0  0
    4.1752   -9.9492    0.0000 O   0  0  0  0  0  0  0  0  0  0  0  0
    7.0274  -13.2503    0.0000 O   0  0  0  0  0  0  0  0  0  0  0  0
    8.4561  -12.4249    0.0000 O   0  0  0  0  0  0  0  0  0  0  0  0
    8.4557  -10.7749    0.0000 O   0  0  0  0  0  0  0  0  0  0  0  0
    6.3124  -11.1880    0.0000 O   0  0  0  0  0  0  0  0  0  0  0  0
    6.3126  -12.0130    0.0000 C   0  0  0  0  0  0  0  0  0  0  0  0
    7.0272  -12.4253    0.0000 C   0  0  0  0  0  0  0  0  0  0  0  0
    7.7416  -12.0126    0.0000 C   0  0  0  0  0  0  0  0  0  0  0  0
    7.7413  -11.1876    0.0000 C   0  0  0  0  0  0  0  0  0  0  0  0
    7.0268  -10.7753    0.0000 C   0  0  0  0  0  0  0  0  0  0  0  0
    6.3359   -6.2185    0.0000 C   0  0  2  0  0  0  0  0  0  0  0  0
    7.0523   -5.8093    0.0000 O   0  0  0  0  0  0  0  0  0  0  0  0
    7.0561   -4.9843    0.0000 C   0  0  1  0  0  0  0  0  0  0  0  0
    6.3436   -4.5685    0.0000 C   0  0  2  0  0  0  0  0  0  0  0  0
    5.6272   -4.9777    0.0000 C   0  0  1  0  0  0  0  0  0  0  0  0
    5.6234   -5.8027    0.0000 C   0  0  1  0  0  0  0  0  0  0  0  0
    7.7725   -4.5751    0.0000 C   0  0  0  0  0  0  0  0  0  0  0  0
    4.9147   -4.5619    0.0000 O   0  0  0  0  0  0  0  0  0  0  0  0
    6.3474   -3.7435    0.0000 O   0  0  0  0  0  0  0  0  0  0  0  0
    4.9070   -6.2119    0.0000 O   0  0  0  0  0  0  0  0  0  0  0  0
    7.7763   -3.7501    0.0000 O   0  0  0  0  0  0  0  0  0  0  0  0
    4.1941   -5.7905    0.0000 C   0  0  0  0  0  0  0  0  0  0  0  0
    3.4839   -6.2104    0.0000 C   0  0  0  0  0  0  0  0  0  0  0  0
    4.1855   -4.9655    0.0000 O   0  0  0  0  0  0  0  0  0  0  0  0
    2.7624   -5.8103    0.0000 C   0  0  0  0  0  0  0  0  0  0  0  0
    2.0542   -6.2335    0.0000 C   0  0  0  0  0  0  0  0  0  0  0  0
    2.0675   -7.0567    0.0000 C   0  0  0  0  0  0  0  0  0  0  0  0
    2.7861   -7.4585    0.0000 C   0  0  0  0  0  0  0  0  0  0  0  0
    3.4943   -7.0353    0.0000 C   0  0  0  0  0  0  0  0  0  0  0  0
    2.7980   -8.2834    0.0000 O   0  0  0  0  0  0  0  0  0  0  0  0
    1.3593   -7.4799    0.0000 O   0  0  0  0  0  0  0  0  0  0  0  0
    1.3334   -5.8322    0.0000 O   0  0  0  0  0  0  0  0  0  0  0  0
    6.3186   -7.8867    0.0000 H   0  0  0  0  0  0  0  0  0  0  0  0
 21  8  1  0  0  0  0
  6  1  1  0  0  0  0
  5  2  1  0  0  0  0
  8  3  2  0  0  0  0
  4  3  1  0  0  0  0
  5  4  2  0  0  0  0
  6  5  1  0  0  0  0
  7  6  2  0  0  0  0
  8  7  1  0  0  0  0
 17  9  1  0  0  0  0
 15 10  1  0  0  0  0
 19 11  2  0  0  0  0
 21 12  1  0  0  0  0
 13 12  1  0  0  0  0
 18 13  2  0  0  0  0
 14 13  1  0  0  0  0
 15 14  2  0  0  0  0
 16 15  1  0  0  0  0
 17 16  2  0  0  0  0
 18 17  1  0  0  0  0
 19 18  1  0  0  0  0
 20 19  1  0  0  0  0
 21 20  2  0  0  0  0
 22 23  1  0  0  0  0
 23 24  1  0  0  0  0
 24 25  1  0  0  0  0
 25 26  1  0  0  0  0
 26 27  1  0  0  0  0
 27 22  1  0  0  0  0
 22 28  1  6  0  0  0
 24 29  1  6  0  0  0
 25 30  1  6  0  0  0
 23 31  1  1  0  0  0
 37 32  1  0  0  0  0
 38 33  1  0  0  0  0
 39 34  1  0  0  0  0
 35 40  1  0  0  0  0
 36 35  1  0  0  0  0
 37 36  1  0  0  0  0
 38 37  1  0  0  0  0
 39 38  1  0  0  0  0
 40 39  1  0  0  0  0
 40 30  1  0  0  0  0
 26 16  1  0  0  0  0
 41 42  1  0  0  0  0
 42 43  1  0  0  0  0
 43 44  1  0  0  0  0
 44 45  1  0  0  0  0
 45 46  1  0  0  0  0
 46 41  1  0  0  0  0
 43 47  1  1  0  0  0
 45 48  1  1  0  0  0
 44 49  1  6  0  0  0
 46 50  1  6  0  0  0
 47 51  1  0  0  0  0
 41 10  1  1  0  0  0
 52 53  1  0  0  0  0
 52 54  2  0  0  0  0
 53 55  2  0  0  0  0
 55 56  1  0  0  0  0
 56 57  2  0  0  0  0
 57 58  1  0  0  0  0
 58 59  2  0  0  0  0
 59 53  1  0  0  0  0
 58 60  1  0  0  0  0
 57 61  1  0  0  0  0
 56 62  1  0  0  0  0
 52 50  1  0  0  0  0
 26 63  1  6  0  0  0
M  END
>  <cdx:fragmentId>
5

$$$$
