98576.cdx
  Mrv1902 05222410232D          

 20 21  0  0  0  0            999 V2000
    8.5746   -6.9575    0.0000 O   0  0  0  0  0  0  0  0  0  0  0  0
    9.2890   -7.3700    0.0000 C   0  0  0  0  0  0  0  0  0  0  0  0
   10.0035   -6.9575    0.0000 O   0  0  0  0  0  0  0  0  0  0  0  0
    9.2890   -8.1950    0.0000 C   0  0  0  0  0  0  0  0  0  0  0  0
    8.5746   -8.6075    0.0000 C   0  0  0  0  0  0  0  0  0  0  0  0
    7.8601   -8.1950    0.0000 C   0  0  0  0  0  0  0  0  0  0  0  0
    7.1456   -8.6075    0.0000 C   0  0  0  0  0  0  0  0  0  0  0  0
    6.4311   -8.1950    0.0000 C   0  0  0  0  0  0  0  0  0  0  0  0
    6.4311   -7.3700    0.0000 C   0  0  0  0  0  0  0  0  0  0  0  0
    7.1456   -6.9575    0.0000 C   0  0  0  0  0  0  0  0  0  0  0  0
    7.8601   -7.3700    0.0000 C   0  0  0  0  0  0  0  0  0  0  0  0
    7.1456   -6.1325    0.0000 C   0  0  0  0  0  0  0  0  0  0  0  0
    5.7167   -6.9575    0.0000 O   0  0  0  0  0  0  0  0  0  0  0  0
    5.0022   -7.3700    0.0000 C   0  0  0  0  0  0  0  0  0  0  0  0
    5.0022   -8.1950    0.0000 O   0  0  0  0  0  0  0  0  0  0  0  0
    4.2877   -6.9575    0.0000 C   0  0  0  0  0  0  0  0  0  0  0  0
    7.1456   -9.4325    0.0000 O   0  0  0  0  0  0  0  0  0  0  0  0
    6.4311   -9.8450    0.0000 C   0  0  0  0  0  0  0  0  0  0  0  0
    6.4311  -10.6700    0.0000 O   0  0  0  0  0  0  0  0  0  0  0  0
    5.7167   -9.4325    0.0000 C   0  0  0  0  0  0  0  0  0  0  0  0
  1  2  1  0  0  0  0
  2  3  2  0  0  0  0
  2  4  1  0  0  0  0
  4  5  2  0  0  0  0
  5  6  1  0  0  0  0
  6  7  1  0  0  0  0
  7  8  2  0  0  0  0
  8  9  1  0  0  0  0
  9 10  2  0  0  0  0
 10 11  1  0  0  0  0
  1 11  1  0  0  0  0
  6 11  2  0  0  0  0
 10 12  1  0  0  0  0
 14 15  2  0  0  0  0
 14 16  1  0  0  0  0
 13 14  1  0  0  0  0
  9 13  1  0  0  0  0
 18 19  2  0  0  0  0
 18 20  1  0  0  0  0
 17 18  1  0  0  0  0
  7 17  1  0  0  0  0
M  END
>  <cdx:fragmentId>
5

$$$$
