98584.cdx
  Mrv1902 05222410232D          

 42 45  0  0  0  0            999 V2000
    8.2259   -6.5170    0.0000 O   0  0  0  0  0  0  0  0  0  0  0  0
    8.9391   -6.9317    0.0000 C   0  0  0  0  0  0  0  0  0  0  0  0
    9.6549   -6.5214    0.0000 C   0  0  0  0  0  0  0  0  0  0  0  0
   13.2259   -6.9449    0.0000 C   0  0  0  0  0  0  0  0  0  0  0  0
   12.5127   -6.5302    0.0000 O   0  0  0  0  0  0  0  0  0  0  0  0
   12.5077   -8.1802    0.0000 O   0  0  0  0  0  0  0  0  0  0  0  0
   10.3655   -7.7611    0.0000 C   0  0  0  0  0  0  0  0  0  0  0  0
   11.0788   -8.1758    0.0000 C   0  0  0  0  0  0  0  0  0  0  0  0
   11.7945   -7.7655    0.0000 C   0  0  0  0  0  0  0  0  0  0  0  0
   11.7970   -6.9405    0.0000 C   0  0  0  0  0  0  0  0  0  0  0  0
    7.5102   -6.9274    0.0000 C   0  0  2  0  0  0  0  0  0  0  0  0
    6.7970   -6.5127    0.0000 O   0  0  0  0  0  0  0  0  0  0  0  0
    6.0813   -6.9230    0.0000 C   0  0  1  0  0  0  0  0  0  0  0  0
    6.0787   -7.7480    0.0000 C   0  0  2  0  0  0  0  0  0  0  0  0
    6.7919   -8.1627    0.0000 C   0  0  1  0  0  0  0  0  0  0  0  0
    7.5077   -7.7524    0.0000 C   0  0  1  0  0  0  0  0  0  0  0  0
    5.3681   -6.5083    0.0000 C   0  0  0  0  0  0  0  0  0  0  0  0
    6.7894   -8.9877    0.0000 O   0  0  0  0  0  0  0  0  0  0  0  0
    5.3630   -8.1583    0.0000 O   0  0  0  0  0  0  0  0  0  0  0  0
    8.2209   -8.1670    0.0000 O   0  0  0  0  0  0  0  0  0  0  0  0
    4.6523   -6.9186    0.0000 O   0  0  0  0  0  0  0  0  0  0  0  0
   11.0838   -6.5258    0.0000 C   0  0  0  0  0  0  0  0  0  0  0  0
   10.3681   -6.9361    0.0000 C   0  0  0  0  0  0  0  0  0  0  0  0
    3.2271   -5.2637    0.0000 C   0  0  0  0  0  0  0  0  0  0  0  0
    2.5103   -5.6721    0.0000 C   0  0  1  0  0  0  0  0  0  0  0  0
    2.5056   -6.4971    0.0000 C   0  0  1  0  0  0  0  0  0  0  0  0
    3.2177   -6.9136    0.0000 C   0  0  2  0  0  0  0  0  0  0  0  0
    3.9345   -6.5052    0.0000 C   0  0  1  0  0  0  0  0  0  0  0  0
    3.9392   -5.6802    0.0000 O   0  0  0  0  0  0  0  0  0  0  0  0
    1.7982   -5.2555    0.0000 O   0  0  0  0  0  0  0  0  0  0  0  0
    1.7888   -6.9055    0.0000 O   0  0  0  0  0  0  0  0  0  0  0  0
    3.2131   -7.7386    0.0000 O   0  0  0  0  0  0  0  0  0  0  0  0
    6.0838   -9.4151    0.0000 C   0  0  2  0  0  0  0  0  0  0  0  0
    5.3608   -9.0177    0.0000 O   0  0  0  0  0  0  0  0  0  0  0  0
    4.6552   -9.4451    0.0000 C   0  0  2  0  0  0  0  0  0  0  0  0
    4.6725  -10.2700    0.0000 C   0  0  1  0  0  0  0  0  0  0  0  0
    5.3955  -10.6673    0.0000 C   0  0  2  0  0  0  0  0  0  0  0  0
    6.1011  -10.2399    0.0000 C   0  0  1  0  0  0  0  0  0  0  0  0
    3.9669  -10.6974    0.0000 O   0  0  0  0  0  0  0  0  0  0  0  0
    6.8241  -10.6373    0.0000 O   0  0  0  0  0  0  0  0  0  0  0  0
    5.4128  -11.4922    0.0000 O   0  0  0  0  0  0  0  0  0  0  0  0
    3.9322   -9.0477    0.0000 C   0  0  0  0  0  0  0  0  0  0  0  0
  1  2  1  0  0  0  0
  2  3  1  0  0  0  0
  5  4  1  0  0  0  0
  3 23  1  0  0  0  0
 10  5  1  0  0  0  0
  9  6  1  0  0  0  0
  7 23  1  0  0  0  0
  8  7  2  0  0  0  0
  9  8  1  0  0  0  0
 10  9  2  0  0  0  0
 22 10  1  0  0  0  0
 23 22  2  0  0  0  0
 11  1  1  1  0  0  0
 11 12  1  0  0  0  0
 12 13  1  0  0  0  0
 13 14  1  0  0  0  0
 14 15  1  0  0  0  0
 15 16  1  0  0  0  0
 16 11  1  0  0  0  0
 13 17  1  1  0  0  0
 15 18  1  1  0  0  0
 14 19  1  6  0  0  0
 16 20  1  6  0  0  0
 17 21  1  0  0  0  0
 24 25  1  0  0  0  0
 25 26  1  0  0  0  0
 26 27  1  0  0  0  0
 27 28  1  0  0  0  0
 28 29  1  0  0  0  0
 29 24  1  0  0  0  0
 25 30  1  1  0  0  0
 26 31  1  1  0  0  0
 27 32  1  6  0  0  0
 28 21  1  1  0  0  0
 33 18  1  1  0  0  0
 33 34  1  0  0  0  0
 34 35  1  0  0  0  0
 35 36  1  0  0  0  0
 36 37  1  0  0  0  0
 37 38  1  0  0  0  0
 38 33  1  0  0  0  0
 36 39  1  1  0  0  0
 38 40  1  6  0  0  0
 37 41  1  6  0  0  0
 35 42  1  6  0  0  0
M  END
>  <cdx:fragmentId>
3

$$$$
