98588.cdx
  Mrv1902 05222410232D          

 29 31  0  0  0  0            999 V2000
    8.2497   -6.8508    0.0000 C   0  0  0  0  0  0  0  0  0  0  0  0
    7.5309   -7.2557    0.0000 C   0  0  0  0  0  0  0  0  0  0  0  0
    6.8209   -6.8356    0.0000 C   0  0  0  0  0  0  0  0  0  0  0  0
    6.8297   -6.0106    0.0000 C   0  0  0  0  0  0  0  0  0  0  0  0
    7.5485   -5.6058    0.0000 C   0  0  0  0  0  0  0  0  0  0  0  0
    8.2585   -6.0258    0.0000 C   0  0  0  0  0  0  0  0  0  0  0  0
    8.9773   -5.6210    0.0000 O   0  0  0  0  0  0  0  0  0  0  0  0
    7.5221   -8.0806    0.0000 O   0  0  0  0  0  0  0  0  0  0  0  0
   11.1162   -6.0563    0.0000 C   0  0  0  0  0  0  0  0  0  0  0  0
   11.8351   -5.6514    0.0000 C   0  0  0  0  0  0  0  0  0  0  0  0
   12.5451   -6.0715    0.0000 C   0  0  0  0  0  0  0  0  0  0  0  0
   12.5363   -6.8964    0.0000 C   0  0  0  0  0  0  0  0  0  0  0  0
   11.8175   -7.3013    0.0000 C   0  0  0  0  0  0  0  0  0  0  0  0
   11.1075   -6.8812    0.0000 C   0  0  0  0  0  0  0  0  0  0  0  0
   10.3886   -7.2861    0.0000 C   0  0  0  0  0  0  0  0  0  0  0  0
    9.6786   -6.8660    0.0000 O   0  0  0  0  0  0  0  0  0  0  0  0
    8.9510   -8.0958    0.0000 O   0  0  0  0  0  0  0  0  0  0  0  0
    8.9598   -7.2709    0.0000 C   0  0  0  0  0  0  0  0  0  0  0  0
    6.8033   -8.4855    0.0000 C   0  0  2  0  0  0  0  0  0  0  0  0
    6.0933   -8.0654    0.0000 O   0  0  0  0  0  0  0  0  0  0  0  0
    5.3745   -8.4703    0.0000 C   0  0  1  0  0  0  0  0  0  0  0  0
    5.3657   -9.2953    0.0000 C   0  0  2  0  0  0  0  0  0  0  0  0
    6.0757   -9.7153    0.0000 C   0  0  1  0  0  0  0  0  0  0  0  0
    6.7945   -9.3105    0.0000 C   0  0  1  0  0  0  0  0  0  0  0  0
    4.6644   -8.0502    0.0000 C   0  0  0  0  0  0  0  0  0  0  0  0
    6.0669  -10.5403    0.0000 O   0  0  0  0  0  0  0  0  0  0  0  0
    7.5046   -9.7305    0.0000 O   0  0  0  0  0  0  0  0  0  0  0  0
    4.6469   -9.7001    0.0000 O   0  0  0  0  0  0  0  0  0  0  0  0
    3.9456   -8.4551    0.0000 O   0  0  0  0  0  0  0  0  0  0  0  0
 16 15  1  0  0  0  0
 14  9  2  0  0  0  0
 10  9  1  0  0  0  0
 11 10  2  0  0  0  0
 12 11  1  0  0  0  0
 13 12  2  0  0  0  0
 14 13  1  0  0  0  0
 15 14  1  0  0  0  0
 18 16  1  0  0  0  0
 18 17  2  0  0  0  0
 18  1  1  0  0  0  0
  1  2  1  0  0  0  0
  2  3  2  0  0  0  0
  3  4  1  0  0  0  0
  4  5  2  0  0  0  0
  5  6  1  0  0  0  0
  1  6  2  0  0  0  0
  6  7  1  0  0  0  0
  2  8  1  0  0  0  0
 19  8  1  1  0  0  0
 19 20  1  0  0  0  0
 20 21  1  0  0  0  0
 21 22  1  0  0  0  0
 22 23  1  0  0  0  0
 23 24  1  0  0  0  0
 24 19  1  0  0  0  0
 21 25  1  1  0  0  0
 23 26  1  1  0  0  0
 24 27  1  6  0  0  0
 22 28  1  6  0  0  0
 25 29  1  0  0  0  0
M  END
>  <cdx:fragmentId>
5

$$$$
