98581.cdx
  Mrv1902 05222410212D          

 41 45  0  0  0  0            999 V2000
    5.2712   -5.6925    0.0000 C   0  0  0  0  0  0  0  0  0  0  0  0
    5.2712   -6.5175    0.0000 C   0  0  0  0  0  0  0  0  0  0  0  0
    5.9856   -6.9300    0.0000 C   0  0  0  0  0  0  0  0  0  0  0  0
    6.7001   -6.5175    0.0000 C   0  0  0  0  0  0  0  0  0  0  0  0
    6.7001   -5.6925    0.0000 C   0  0  0  0  0  0  0  0  0  0  0  0
    5.9856   -5.2800    0.0000 C   0  0  0  0  0  0  0  0  0  0  0  0
    7.4146   -6.9300    0.0000 C   0  0  0  0  0  0  0  0  0  0  0  0
    8.1291   -6.5175    0.0000 C   0  0  0  0  0  0  0  0  0  0  0  0
    8.1291   -5.6925    0.0000 C   0  0  0  0  0  0  0  0  0  0  0  0
    7.4146   -5.2800    0.0000 O   0  0  0  0  0  0  0  0  0  0  0  0
    8.8435   -6.9300    0.0000 C   0  0  0  0  0  0  0  0  0  0  0  0
    9.5580   -6.5175    0.0000 C   0  0  0  0  0  0  0  0  0  0  0  0
    8.8435   -7.7550    0.0000 C   0  0  0  0  0  0  0  0  0  0  0  0
    9.5580   -8.1675    0.0000 C   0  0  0  0  0  0  0  0  0  0  0  0
   10.2725   -7.7550    0.0000 C   0  0  0  0  0  0  0  0  0  0  0  0
   10.2725   -6.9300    0.0000 C   0  0  0  0  0  0  0  0  0  0  0  0
    4.5567   -5.2800    0.0000 O   0  0  0  0  0  0  0  0  0  0  0  0
    5.9856   -7.7550    0.0000 O   0  0  0  0  0  0  0  0  0  0  0  0
    7.4146   -7.7550    0.0000 O   0  0  0  0  0  0  0  0  0  0  0  0
   10.9869   -8.1675    0.0000 O   0  0  0  0  0  0  0  0  0  0  0  0
    2.4249   -5.6925    0.0000 C   0  0  1  0  0  0  0  0  0  0  0  0
    2.4249   -6.5175    0.0000 C   0  0  1  0  0  0  0  0  0  0  0  0
    3.1394   -6.9300    0.0000 C   0  0  2  0  0  0  0  0  0  0  0  0
    3.8539   -6.5175    0.0000 C   0  0  2  0  0  0  0  0  0  0  0  0
    3.8539   -5.6925    0.0000 C   0  0  1  0  0  0  0  0  0  0  0  0
    3.1394   -5.2800    0.0000 O   0  0  0  0  0  0  0  0  0  0  0  0
    1.7105   -6.9300    0.0000 O   0  0  0  0  0  0  0  0  0  0  0  0
    1.7105   -5.2800    0.0000 C   0  0  0  0  0  0  0  0  0  0  0  0
    3.1394   -7.7550    0.0000 O   0  0  0  0  0  0  0  0  0  0  0  0
    4.5683   -6.9300    0.0000 O   0  0  0  0  0  0  0  0  0  0  0  0
   10.9869   -8.9925    0.0000 C   0  0  2  0  0  0  0  0  0  0  0  0
   10.2725   -9.4050    0.0000 O   0  0  0  0  0  0  0  0  0  0  0  0
   10.2725  -10.2300    0.0000 C   0  0  1  0  0  0  0  0  0  0  0  0
   10.9869  -10.6425    0.0000 C   0  0  2  0  0  0  0  0  0  0  0  0
   11.7014  -10.2300    0.0000 C   0  0  1  0  0  0  0  0  0  0  0  0
   11.7014   -9.4050    0.0000 C   0  0  1  0  0  0  0  0  0  0  0  0
    9.5580  -10.6425    0.0000 C   0  0  0  0  0  0  0  0  0  0  0  0
   12.4159  -10.6425    0.0000 O   0  0  0  0  0  0  0  0  0  0  0  0
   12.4159   -8.9925    0.0000 O   0  0  0  0  0  0  0  0  0  0  0  0
   10.9869  -11.4675    0.0000 O   0  0  0  0  0  0  0  0  0  0  0  0
    9.5580  -11.4675    0.0000 O   0  0  0  0  0  0  0  0  0  0  0  0
  1  2  2  0  0  0  0
  2  3  1  0  0  0  0
  3  4  2  0  0  0  0
  4  5  1  0  0  0  0
  5  6  2  0  0  0  0
  6  1  1  0  0  0  0
  4  7  1  0  0  0  0
  7  8  1  0  0  0  0
  8  9  2  0  0  0  0
  9 10  1  0  0  0  0
 10  5  1  0  0  0  0
  8 11  1  0  0  0  0
 11 12  2  0  0  0  0
 11 13  1  0  0  0  0
 13 14  2  0  0  0  0
 14 15  1  0  0  0  0
 15 16  2  0  0  0  0
 16 12  1  0  0  0  0
  1 17  1  0  0  0  0
  3 18  1  0  0  0  0
  7 19  2  0  0  0  0
 15 20  1  0  0  0  0
 21 22  1  0  0  0  0
 22 23  1  0  0  0  0
 23 24  1  0  0  0  0
 24 25  1  0  0  0  0
 25 26  1  0  0  0  0
 26 21  1  0  0  0  0
 22 27  1  1  0  0  0
 21 28  1  6  0  0  0
 23 29  1  6  0  0  0
 24 30  1  6  0  0  0
 31 20  1  1  0  0  0
 31 32  1  0  0  0  0
 32 33  1  0  0  0  0
 33 34  1  0  0  0  0
 34 35  1  0  0  0  0
 35 36  1  0  0  0  0
 36 31  1  0  0  0  0
 33 37  1  1  0  0  0
 35 38  1  1  0  0  0
 36 39  1  6  0  0  0
 34 40  1  6  0  0  0
 37 41  1  0  0  0  0
 25 17  1  1  0  0  0
M  END
>  <cdx:fragmentId>
5

$$$$
