98580.cdx
  Mrv1902 05222410202D          

 17 18  0  0  0  0            999 V2000
    5.8939   -9.3418    0.0000 C   0  0  2  0  0  0  0  0  0  0  0  0
    5.1794   -8.9293    0.0000 C   0  0  0  0  0  0  0  0  0  0  0  0
    5.1794   -8.1043    0.0000 C   0  0  0  0  0  0  0  0  0  0  0  0
    5.8939   -7.6918    0.0000 C   0  0  0  0  0  0  0  0  0  0  0  0
    6.6084   -8.1043    0.0000 C   0  0  2  0  0  0  0  0  0  0  0  0
    7.3228   -7.6918    0.0000 C   0  0  0  0  0  0  0  0  0  0  0  0
    8.0373   -8.1043    0.0000 C   0  0  0  0  0  0  0  0  0  0  0  0
    8.0373   -8.9293    0.0000 C   0  0  0  0  0  0  0  0  0  0  0  0
    7.3228   -9.3418    0.0000 C   0  0  0  0  0  0  0  0  0  0  0  0
    6.6084   -8.9293    0.0000 C   0  0  1  0  0  0  0  0  0  0  0  0
    6.3064  -10.0563    0.0000 O   0  0  0  0  0  0  0  0  0  0  0  0
    8.7518  -10.1668    0.0000 C   0  0  0  0  0  0  0  0  0  0  0  0
    8.7518   -9.3418    0.0000 C   0  0  0  0  0  0  0  0  0  0  0  0
    9.4663   -8.9293    0.0000 C   0  0  0  0  0  0  0  0  0  0  0  0
    6.6084   -7.2793    0.0000 C   0  0  0  0  0  0  0  0  0  0  0  0
    5.4814  -10.0563    0.0000 C   0  0  0  0  0  0  0  0  0  0  0  0
    6.6084   -9.7543    0.0000 H   0  0  0  0  0  0  0  0  0  0  0  0
  1  2  1  0  0  0  0
  2  3  1  0  0  0  0
  3  4  1  0  0  0  0
  4  5  1  0  0  0  0
  5  6  1  0  0  0  0
  6  7  1  0  0  0  0
  7  8  1  0  0  0  0
  8  9  1  0  0  0  0
  9 10  1  0  0  0  0
  1 10  1  0  0  0  0
  5 10  1  0  0  0  0
  1 11  1  6  0  0  0
 12 13  1  0  0  0  0
 13 14  1  0  0  0  0
  8 13  2  0  0  0  0
  5 15  1  1  0  0  0
  1 16  1  0  0  0  0
 10 17  1  6  0  0  0
M  END
>  <cdx:fragmentId>
55

$$$$
