98583.cdx
  Mrv1902 05222410212D          

 32 34  0  0  0  0            999 V2000
    8.2778   -6.9048    0.0000 O   0  0  0  0  0  0  0  0  0  0  0  0
    8.9913   -7.3189    0.0000 C   0  0  0  0  0  0  0  0  0  0  0  0
    9.7067   -6.9080    0.0000 C   0  0  0  0  0  0  0  0  0  0  0  0
   13.2781   -7.3286    0.0000 C   0  0  0  0  0  0  0  0  0  0  0  0
   12.5646   -6.9145    0.0000 O   0  0  0  0  0  0  0  0  0  0  0  0
   12.5609   -8.5645    0.0000 O   0  0  0  0  0  0  0  0  0  0  0  0
   10.4184   -8.1471    0.0000 C   0  0  0  0  0  0  0  0  0  0  0  0
   11.1319   -8.5612    0.0000 C   0  0  0  0  0  0  0  0  0  0  0  0
   11.8473   -8.1504    0.0000 C   0  0  0  0  0  0  0  0  0  0  0  0
   11.8492   -7.3254    0.0000 C   0  0  0  0  0  0  0  0  0  0  0  0
    7.5624   -7.3157    0.0000 C   0  0  2  0  0  0  0  0  0  0  0  0
    6.8488   -6.9016    0.0000 O   0  0  0  0  0  0  0  0  0  0  0  0
    6.1334   -7.3125    0.0000 C   0  0  1  0  0  0  0  0  0  0  0  0
    6.1316   -8.1375    0.0000 C   0  0  2  0  0  0  0  0  0  0  0  0
    6.8451   -8.5516    0.0000 C   0  0  1  0  0  0  0  0  0  0  0  0
    7.5605   -8.1407    0.0000 C   0  0  1  0  0  0  0  0  0  0  0  0
    5.4199   -6.8984    0.0000 C   0  0  0  0  0  0  0  0  0  0  0  0
    6.8433   -9.3766    0.0000 O   0  0  0  0  0  0  0  0  0  0  0  0
    5.4162   -8.5484    0.0000 O   0  0  0  0  0  0  0  0  0  0  0  0
    8.2741   -8.5548    0.0000 O   0  0  0  0  0  0  0  0  0  0  0  0
    4.7045   -7.3093    0.0000 O   0  0  0  0  0  0  0  0  0  0  0  0
   11.1357   -6.9112    0.0000 C   0  0  0  0  0  0  0  0  0  0  0  0
   10.4203   -7.3221    0.0000 C   0  0  0  0  0  0  0  0  0  0  0  0
    3.2779   -5.6555    0.0000 C   0  0  0  0  0  0  0  0  0  0  0  0
    2.5615   -6.0645    0.0000 C   0  0  1  0  0  0  0  0  0  0  0  0
    2.5575   -6.8895    0.0000 C   0  0  1  0  0  0  0  0  0  0  0  0
    3.2699   -7.3054    0.0000 C   0  0  2  0  0  0  0  0  0  0  0  0
    3.9864   -6.8964    0.0000 C   0  0  1  0  0  0  0  0  0  0  0  0
    3.9904   -6.0714    0.0000 O   0  0  0  0  0  0  0  0  0  0  0  0
    1.8490   -5.6485    0.0000 O   0  0  0  0  0  0  0  0  0  0  0  0
    1.8410   -7.2985    0.0000 O   0  0  0  0  0  0  0  0  0  0  0  0
    3.2659   -8.1304    0.0000 O   0  0  0  0  0  0  0  0  0  0  0  0
  1  2  1  0  0  0  0
  2  3  1  0  0  0  0
  5  4  1  0  0  0  0
  3 23  1  0  0  0  0
 10  5  1  0  0  0  0
  9  6  1  0  0  0  0
  7 23  1  0  0  0  0
  8  7  2  0  0  0  0
  9  8  1  0  0  0  0
 10  9  2  0  0  0  0
 22 10  1  0  0  0  0
 23 22  2  0  0  0  0
 11  1  1  1  0  0  0
 11 12  1  0  0  0  0
 12 13  1  0  0  0  0
 13 14  1  0  0  0  0
 14 15  1  0  0  0  0
 15 16  1  0  0  0  0
 16 11  1  0  0  0  0
 13 17  1  1  0  0  0
 15 18  1  1  0  0  0
 14 19  1  6  0  0  0
 16 20  1  6  0  0  0
 17 21  1  0  0  0  0
 24 25  1  0  0  0  0
 25 26  1  0  0  0  0
 26 27  1  0  0  0  0
 27 28  1  0  0  0  0
 28 29  1  0  0  0  0
 29 24  1  0  0  0  0
 25 30  1  1  0  0  0
 26 31  1  1  0  0  0
 27 32  1  6  0  0  0
 28 21  1  1  0  0  0
M  END
>  <cdx:fragmentId>
3

$$$$
