98586.cdx
  Mrv1902 05222410222D          

 44 48  0  0  0  0            999 V2000
    7.3191   -8.6710    0.0000 O   0  0  0  0  0  0  0  0  0  0  0  0
    5.8901   -6.1960    0.0000 O   0  0  0  0  0  0  0  0  0  0  0  0
   12.3204   -4.9585    0.0000 O   0  0  0  0  0  0  0  0  0  0  0  0
   13.0348   -6.1960    0.0000 C   0  0  0  0  0  0  0  0  0  0  0  0
   12.3204   -6.6085    0.0000 O   0  0  0  0  0  0  0  0  0  0  0  0
   10.1770   -5.3710    0.0000 C   0  0  0  0  0  0  0  0  0  0  0  0
   10.8914   -4.9585    0.0000 C   0  0  0  0  0  0  0  0  0  0  0  0
   11.6059   -5.3710    0.0000 C   0  0  0  0  0  0  0  0  0  0  0  0
   11.6059   -6.1960    0.0000 C   0  0  0  0  0  0  0  0  0  0  0  0
   10.8914   -6.6085    0.0000 C   0  0  0  0  0  0  0  0  0  0  0  0
   10.1770   -6.1960    0.0000 C   0  0  0  0  0  0  0  0  0  0  0  0
    8.7480   -8.6710    0.0000 O   0  0  0  0  0  0  0  0  0  0  0  0
    8.7480   -6.1960    0.0000 O   0  0  0  0  0  0  0  0  0  0  0  0
    8.0335   -6.6085    0.0000 C   0  0  0  0  0  0  0  0  0  0  0  0
    7.3191   -6.1960    0.0000 C   0  0  0  0  0  0  0  0  0  0  0  0
    6.6046   -6.6085    0.0000 C   0  0  0  0  0  0  0  0  0  0  0  0
    6.6046   -7.4335    0.0000 C   0  0  0  0  0  0  0  0  0  0  0  0
    7.3191   -7.8460    0.0000 C   0  0  0  0  0  0  0  0  0  0  0  0
    8.0335   -7.4335    0.0000 C   0  0  0  0  0  0  0  0  0  0  0  0
    8.7480   -7.8460    0.0000 C   0  0  0  0  0  0  0  0  0  0  0  0
    9.4625   -7.4335    0.0000 C   0  0  0  0  0  0  0  0  0  0  0  0
    9.4625   -6.6085    0.0000 C   0  0  0  0  0  0  0  0  0  0  0  0
    5.1757   -6.6085    0.0000 C   0  0  2  0  0  0  0  0  0  0  0  0
    4.4612   -6.1960    0.0000 O   0  0  0  0  0  0  0  0  0  0  0  0
    3.7467   -6.6085    0.0000 C   0  0  1  0  0  0  0  0  0  0  0  0
    3.7467   -7.4335    0.0000 C   0  0  2  0  0  0  0  0  0  0  0  0
    4.4612   -7.8460    0.0000 C   0  0  1  0  0  0  0  0  0  0  0  0
    5.1757   -7.4335    0.0000 C   0  0  1  0  0  0  0  0  0  0  0  0
    3.0322   -6.1960    0.0000 C   0  0  0  0  0  0  0  0  0  0  0  0
    4.4612   -8.6710    0.0000 O   0  0  0  0  0  0  0  0  0  0  0  0
    3.0322   -7.8460    0.0000 O   0  0  0  0  0  0  0  0  0  0  0  0
    5.8901   -7.8460    0.0000 O   0  0  0  0  0  0  0  0  0  0  0  0
    2.3178   -6.6085    0.0000 O   0  0  0  0  0  0  0  0  0  0  0  0
    5.9131   -8.9758    0.0000 C   0  0  2  0  0  0  0  0  0  0  0  0
    5.1979   -9.3870    0.0000 O   0  0  0  0  0  0  0  0  0  0  0  0
    5.1963  -10.2120    0.0000 C   0  0  1  0  0  0  0  0  0  0  0  0
    5.9100  -10.6258    0.0000 C   0  0  2  0  0  0  0  0  0  0  0  0
    6.6253  -10.2146    0.0000 C   0  0  1  0  0  0  0  0  0  0  0  0
    6.6268   -9.3896    0.0000 C   0  0  1  0  0  0  0  0  0  0  0  0
    4.4811  -10.6232    0.0000 C   0  0  0  0  0  0  0  0  0  0  0  0
    7.3390  -10.6284    0.0000 O   0  0  0  0  0  0  0  0  0  0  0  0
    5.9085  -11.4508    0.0000 O   0  0  0  0  0  0  0  0  0  0  0  0
    7.3420   -8.9784    0.0000 O   0  0  0  0  0  0  0  0  0  0  0  0
    4.4796  -11.4481    0.0000 O   0  0  0  0  0  0  0  0  0  0  0  0
 18  1  1  0  0  0  0
 16  2  1  0  0  0  0
 22 11  1  0  0  0  0
  8  3  1  0  0  0  0
  9  5  1  0  0  0  0
  5  4  1  0  0  0  0
 11  6  2  0  0  0  0
  7  6  1  0  0  0  0
  8  7  2  0  0  0  0
  9  8  1  0  0  0  0
 10  9  2  0  0  0  0
 11 10  1  0  0  0  0
 20 12  2  0  0  0  0
 22 13  1  0  0  0  0
 14 13  1  0  0  0  0
 19 14  2  0  0  0  0
 15 14  1  0  0  0  0
 16 15  2  0  0  0  0
 17 16  1  0  0  0  0
 18 17  2  0  0  0  0
 19 18  1  0  0  0  0
 20 19  1  0  0  0  0
 21 20  1  0  0  0  0
 22 21  2  0  0  0  0
 23  2  1  1  0  0  0
 23 24  1  0  0  0  0
 24 25  1  0  0  0  0
 25 26  1  0  0  0  0
 26 27  1  0  0  0  0
 27 28  1  0  0  0  0
 28 23  1  0  0  0  0
 25 29  1  1  0  0  0
 27 30  1  1  0  0  0
 26 31  1  6  0  0  0
 28 32  1  6  0  0  0
 29 33  1  0  0  0  0
 34 35  1  0  0  0  0
 35 36  1  0  0  0  0
 36 37  1  0  0  0  0
 37 38  1  0  0  0  0
 38 39  1  0  0  0  0
 39 34  1  0  0  0  0
 36 40  1  1  0  0  0
 38 41  1  1  0  0  0
 37 42  1  6  0  0  0
 39 43  1  6  0  0  0
 40 44  1  0  0  0  0
 34 32  1  1  0  0  0
M  END
>  <cdx:fragmentId>
5

$$$$
