98599.cdx
  Mrv1902 05222410252D          

 39 43  0  0  0  0            999 V2000
    5.6241   -7.5625    0.0000 C   0  0  2  0  0  0  0  0  0  0  0  0
    5.6241   -8.3875    0.0000 C   0  0  2  0  0  0  0  0  0  0  0  0
    6.2691   -8.9019    0.0000 C   0  0  1  0  0  0  0  0  0  0  0  0
    7.0734   -8.7183    0.0000 C   0  0  1  0  0  0  0  0  0  0  0  0
    7.4314   -7.9750    0.0000 C   0  0  2  0  0  0  0  0  0  0  0  0
    7.0734   -7.2317    0.0000 C   0  0  2  0  0  0  0  0  0  0  0  0
    6.2691   -7.0481    0.0000 C   0  0  2  0  0  0  0  0  0  0  0  0
    4.8395   -7.3076    0.0000 C   0  0  0  0  0  0  0  0  0  0  0  0
    4.3545   -7.9750    0.0000 C   0  0  1  0  0  0  0  0  0  0  0  0
    4.8395   -8.6424    0.0000 C   0  0  2  0  0  0  0  0  0  0  0  0
    7.6346   -6.6269    0.0000 C   0  0  2  0  0  0  0  0  0  0  0  0
    7.3914   -5.8386    0.0000 C   0  0  1  0  0  0  0  0  0  0  0  0
    6.5871   -5.6550    0.0000 C   0  0  0  0  0  0  0  0  0  0  0  0
    6.0259   -6.2598    0.0000 C   0  0  1  0  0  0  0  0  0  0  0  0
    6.5175   -7.9750    0.0000 O   0  0  0  0  0  0  0  0  0  0  0  0
    7.3914   -5.0136    0.0000 C   0  0  0  0  0  0  0  0  0  0  0  0
    6.6769   -4.6011    0.0000 C   0  0  0  0  0  0  0  0  0  0  0  0
    8.1059   -4.6011    0.0000 C   0  0  0  0  0  0  0  0  0  0  0  0
    8.4389   -6.8105    0.0000 O   0  0  0  0  0  0  0  0  0  0  0  0
    3.5295   -7.9750    0.0000 C   0  0  0  0  0  0  0  0  0  0  0  0
    4.5845   -9.4271    0.0000 O   0  0  0  0  0  0  0  0  0  0  0  0
    6.0855   -9.7062    0.0000 O   0  0  0  0  0  0  0  0  0  0  0  0
    7.0734   -9.5433    0.0000 C   0  0  0  0  0  0  0  0  0  0  0  0
    7.8703   -7.4452    0.0000 H   0  0  0  0  0  0  0  0  0  0  0  0
    8.1059   -5.4261    0.0000 O   0  0  0  0  0  0  0  0  0  0  0  0
    5.2216   -6.0762    0.0000 C   0  0  0  0  0  0  0  0  0  0  0  0
    6.8525   -6.4648    0.0000 O   0  0  0  0  0  0  0  0  0  0  0  0
    5.4106   -6.7656    0.0000 H   0  0  0  0  0  0  0  0  0  0  0  0
    8.2564   -7.9750    0.0000 H   0  0  0  0  0  0  0  0  0  0  0  0
    7.7879   -9.9558    0.0000 O   0  0  0  0  0  0  0  0  0  0  0  0
    8.0147   -8.5584    0.0000 O   0  0  0  0  0  0  0  0  0  0  0  0
    8.8116   -8.7719    0.0000 C   0  0  0  0  0  0  0  0  0  0  0  0
    9.0251   -9.5688    0.0000 O   0  0  0  0  0  0  0  0  0  0  0  0
    9.3950   -8.1885    0.0000 C   0  0  0  0  0  0  0  0  0  0  0  0
   10.1919   -8.4021    0.0000 C   0  0  0  0  0  0  0  0  0  0  0  0
   10.7752   -7.8187    0.0000 C   0  0  0  0  0  0  0  0  0  0  0  0
   10.5617   -7.0218    0.0000 C   0  0  0  0  0  0  0  0  0  0  0  0
    9.7648   -6.8083    0.0000 C   0  0  0  0  0  0  0  0  0  0  0  0
    9.1815   -7.3916    0.0000 C   0  0  0  0  0  0  0  0  0  0  0  0
  1  2  1  0  0  0  0
  2  3  1  0  0  0  0
  3  4  1  0  0  0  0
  4  5  1  0  0  0  0
  5  6  1  0  0  0  0
  6  7  1  0  0  0  0
  7  1  1  0  0  0  0
  1  8  1  0  0  0  0
  8  9  1  0  0  0  0
  9 10  1  0  0  0  0
 10  2  1  0  0  0  0
  6 11  1  0  0  0  0
 11 12  1  0  0  0  0
 12 13  1  0  0  0  0
 13 14  1  0  0  0  0
 14  7  1  0  0  0  0
  2 15  1  1  0  0  0
 12 16  1  0  0  0  0
 16 17  1  0  0  0  0
 16 18  2  0  0  0  0
 11 19  1  6  0  0  0
  9 20  1  1  0  0  0
 10 21  1  1  0  0  0
  3 22  1  1  0  0  0
  4 23  1  1  0  0  0
  6 24  1  1  0  0  0
 12 25  1  6  0  0  0
 14 26  1  6  0  0  0
  7 27  1  6  0  0  0
  1 28  1  6  0  0  0
  5 29  1  1  0  0  0
 23 30  1  0  0  0  0
 15  4  1  0  0  0  0
  5 31  1  6  0  0  0
 31 32  1  0  0  0  0
 32 33  2  0  0  0  0
 32 34  1  0  0  0  0
 34 35  2  0  0  0  0
 35 36  1  0  0  0  0
 36 37  2  0  0  0  0
 37 38  1  0  0  0  0
 38 39  2  0  0  0  0
 39 34  1  0  0  0  0
M  END
>  <cdx:fragmentId>
5

$$$$
