98592.cdx
  Mrv1902 05222410222D          

 25 28  0  0  0  0            999 V2000
    4.0749   -6.5587    0.0000 C   0  0  0  0  0  0  0  0  0  0  0  0
    4.0749   -7.3838    0.0000 C   0  0  0  0  0  0  0  0  0  0  0  0
    4.7894   -7.7963    0.0000 C   0  0  0  0  0  0  0  0  0  0  0  0
    5.5039   -7.3838    0.0000 C   0  0  0  0  0  0  0  0  0  0  0  0
    5.5039   -6.5587    0.0000 C   0  0  0  0  0  0  0  0  0  0  0  0
    4.7894   -6.1463    0.0000 C   0  0  0  0  0  0  0  0  0  0  0  0
    6.2183   -7.7963    0.0000 C   0  0  0  0  0  0  0  0  0  0  0  0
    6.9328   -7.3838    0.0000 C   0  0  0  0  0  0  0  0  0  0  0  0
    6.9328   -6.5587    0.0000 C   0  0  0  0  0  0  0  0  0  0  0  0
    6.2183   -6.1463    0.0000 O   0  0  0  0  0  0  0  0  0  0  0  0
    6.3899   -8.6032    0.0000 O   0  0  0  0  0  0  0  0  0  0  0  0
    7.2103   -8.6895    0.0000 C   0  0  0  0  0  0  0  0  0  0  0  0
    7.5459   -7.9358    0.0000 C   0  0  0  0  0  0  0  0  0  0  0  0
    7.6953   -9.3569    0.0000 C   0  0  0  0  0  0  0  0  0  0  0  0
    8.5158   -9.2707    0.0000 C   0  0  0  0  0  0  0  0  0  0  0  0
    8.8513   -8.5170    0.0000 C   0  0  0  0  0  0  0  0  0  0  0  0
    8.3664   -7.8495    0.0000 C   0  0  0  0  0  0  0  0  0  0  0  0
    3.3605   -6.1463    0.0000 O   0  0  0  0  0  0  0  0  0  0  0  0
    4.7894   -8.6212    0.0000 O   0  0  0  0  0  0  0  0  0  0  0  0
    7.3597  -10.1106    0.0000 C   0  0  0  0  0  0  0  0  0  0  0  0
    9.0007   -9.9381    0.0000 O   0  0  0  0  0  0  0  0  0  0  0  0
    8.6651  -10.6918    0.0000 C   0  0  0  0  0  0  0  0  0  0  0  0
    6.5628  -10.3241    0.0000 C   0  0  0  0  0  0  0  0  0  0  0  0
    5.9795   -9.7407    0.0000 C   0  0  0  0  0  0  0  0  0  0  0  0
    6.3493  -11.1210    0.0000 C   0  0  0  0  0  0  0  0  0  0  0  0
  1  2  2  0  0  0  0
  2  3  1  0  0  0  0
  3  4  2  0  0  0  0
  4  5  1  0  0  0  0
  5  6  2  0  0  0  0
  6  1  1  0  0  0  0
  4  7  1  0  0  0  0
  7  8  2  0  0  0  0
  8  9  1  0  0  0  0
  9 10  1  0  0  0  0
 10  5  1  0  0  0  0
  7 11  1  0  0  0  0
 11 12  1  0  0  0  0
 12 13  2  0  0  0  0
 13  8  1  0  0  0  0
 12 14  1  0  0  0  0
 14 15  2  0  0  0  0
 15 16  1  0  0  0  0
 16 17  2  0  0  0  0
 17 13  1  0  0  0  0
  1 18  1  0  0  0  0
  3 19  1  0  0  0  0
 14 20  1  0  0  0  0
 15 21  1  0  0  0  0
 21 22  1  0  0  0  0
 20 23  1  0  0  0  0
 23 24  1  0  0  0  0
 23 25  1  0  0  0  0
M  END
>  <cdx:fragmentId>
5

$$$$
