98591.cdx
  Mrv1902 05222410222D          

 18 19  0  0  0  0            999 V2000
    6.5485   -7.5739    0.0000 C   0  0  0  0  0  0  0  0  0  0  0  0
    7.9774   -7.5739    0.0000 C   0  0  0  0  0  0  0  0  0  0  0  0
    7.2629   -7.9864    0.0000 C   0  0  0  0  0  0  0  0  0  0  0  0
    7.2629   -8.8114    0.0000 C   0  0  0  0  0  0  0  0  0  0  0  0
    6.5485   -9.2239    0.0000 C   0  0  0  0  0  0  0  0  0  0  0  0
    9.4064  -10.0489    0.0000 O   0  0  0  0  0  0  0  0  0  0  0  0
    4.4051  -10.4614    0.0000 C   0  0  0  0  0  0  0  0  0  0  0  0
    5.1195  -10.0489    0.0000 O   0  0  0  0  0  0  0  0  0  0  0  0
    7.9774  -11.6989    0.0000 C   0  0  0  0  0  0  0  0  0  0  0  0
    8.6919  -11.2864    0.0000 C   0  0  0  0  0  0  0  0  0  0  0  0
    8.6919  -10.4614    0.0000 C   0  0  0  0  0  0  0  0  0  0  0  0
    7.9774  -10.0489    0.0000 O   0  0  0  0  0  0  0  0  0  0  0  0
    6.5485  -11.6989    0.0000 C   0  0  0  0  0  0  0  0  0  0  0  0
    7.2629  -11.2864    0.0000 C   0  0  0  0  0  0  0  0  0  0  0  0
    7.2629  -10.4614    0.0000 C   0  0  0  0  0  0  0  0  0  0  0  0
    6.5485  -10.0489    0.0000 C   0  0  0  0  0  0  0  0  0  0  0  0
    5.8340  -10.4614    0.0000 C   0  0  0  0  0  0  0  0  0  0  0  0
    5.8340  -11.2864    0.0000 C   0  0  0  0  0  0  0  0  0  0  0  0
  3  1  1  0  0  0  0
  3  2  2  0  0  0  0
  4  3  1  0  0  0  0
  5  4  2  0  0  0  0
 16  5  1  0  0  0  0
 11  6  2  0  0  0  0
  8  7  1  0  0  0  0
 17  8  1  0  0  0  0
  9 14  1  0  0  0  0
 10  9  2  0  0  0  0
 11 10  1  0  0  0  0
 12 11  1  0  0  0  0
 15 12  1  0  0  0  0
 13 18  1  0  0  0  0
 14 13  2  0  0  0  0
 15 14  1  0  0  0  0
 16 15  2  0  0  0  0
 17 16  1  0  0  0  0
 18 17  2  0  0  0  0
M  END
>  <cdx:fragmentId>
5

$$$$
