98606.cdx
  Mrv1902 05222410242D          

 47 51  0  0  0  0            999 V2000
    6.1787   -9.4738    0.0000 C   0  0  0  0  0  0  0  0  0  0  0  0
    6.1787  -10.2988    0.0000 C   0  0  0  0  0  0  0  0  0  0  0  0
    6.8931  -10.7112    0.0000 C   0  0  0  0  0  0  0  0  0  0  0  0
    7.6076  -10.2988    0.0000 C   0  0  0  0  0  0  0  0  0  0  0  0
    7.6076   -9.4738    0.0000 C   0  0  0  0  0  0  0  0  0  0  0  0
    6.8931   -9.0613    0.0000 C   0  0  0  0  0  0  0  0  0  0  0  0
    8.3221  -10.7112    0.0000 C   0  0  0  0  0  0  0  0  0  0  0  0
    9.0366  -10.2988    0.0000 C   0  0  0  0  0  0  0  0  0  0  0  0
    9.0366   -9.4738    0.0000 C   0  0  0  0  0  0  0  0  0  0  0  0
    8.3221   -9.0613    0.0000 O   0  0  0  0  0  0  0  0  0  0  0  0
   10.4655   -9.4738    0.0000 C   0  0  0  0  0  0  0  0  0  0  0  0
    9.7510   -9.0613    0.0000 C   0  0  0  0  0  0  0  0  0  0  0  0
   11.1800   -9.0613    0.0000 C   0  0  0  0  0  0  0  0  0  0  0  0
   11.1800   -8.2363    0.0000 C   0  0  0  0  0  0  0  0  0  0  0  0
   10.4655   -7.8237    0.0000 C   0  0  0  0  0  0  0  0  0  0  0  0
    9.7510   -8.2363    0.0000 C   0  0  0  0  0  0  0  0  0  0  0  0
    5.4642   -9.0613    0.0000 O   0  0  0  0  0  0  0  0  0  0  0  0
    6.8931  -11.5362    0.0000 O   0  0  0  0  0  0  0  0  0  0  0  0
    8.3221  -11.5362    0.0000 O   0  0  0  0  0  0  0  0  0  0  0  0
   11.8944   -7.8237    0.0000 O   0  0  0  0  0  0  0  0  0  0  0  0
    6.1831   -7.0197    0.0000 C   0  0  2  0  0  0  0  0  0  0  0  0
    5.4687   -6.6070    0.0000 C   0  0  2  0  0  0  0  0  0  0  0  0
    4.7542   -7.0193    0.0000 C   0  0  1  0  0  0  0  0  0  0  0  0
    4.7540   -7.8443    0.0000 C   0  0  2  0  0  0  0  0  0  0  0  0
    5.4684   -8.2570    0.0000 C   0  0  1  0  0  0  0  0  0  0  0  0
    6.1829   -7.8447    0.0000 O   0  0  0  0  0  0  0  0  0  0  0  0
    6.8977   -6.6074    0.0000 C   0  0  0  0  0  0  0  0  0  0  0  0
    4.0398   -6.6067    0.0000 O   0  0  0  0  0  0  0  0  0  0  0  0
    5.4689   -5.7820    0.0000 O   0  0  0  0  0  0  0  0  0  0  0  0
    4.0394   -8.2567    0.0000 O   0  0  0  0  0  0  0  0  0  0  0  0
    4.0392   -9.0817    0.0000 C   0  0  1  0  0  0  0  0  0  0  0  0
    3.3247   -9.4940    0.0000 C   0  0  1  0  0  0  0  0  0  0  0  0
    3.3245  -10.3190    0.0000 C   0  0  1  0  0  0  0  0  0  0  0  0
    4.0388  -10.7317    0.0000 C   0  0  2  0  0  0  0  0  0  0  0  0
    4.7534  -10.3193    0.0000 C   0  0  1  0  0  0  0  0  0  0  0  0
    4.7536   -9.4943    0.0000 O   0  0  0  0  0  0  0  0  0  0  0  0
    4.0386  -11.5567    0.0000 O   0  0  0  0  0  0  0  0  0  0  0  0
    5.4678  -10.7320    0.0000 C   0  0  0  0  0  0  0  0  0  0  0  0
    2.6103   -9.0813    0.0000 O   0  0  0  0  0  0  0  0  0  0  0  0
    2.6099  -10.7313    0.0000 O   0  0  0  0  0  0  0  0  0  0  0  0
    6.8979   -5.7824    0.0000 O   0  0  0  0  0  0  0  0  0  0  0  0
    7.6125   -5.3700    0.0000 C   0  0  0  0  0  0  0  0  0  0  0  0
    7.6127   -4.5450    0.0000 C   0  0  0  0  0  0  0  0  0  0  0  0
    8.3268   -5.7827    0.0000 O   0  0  0  0  0  0  0  0  0  0  0  0
    8.3271   -4.1325    0.0000 C   0  0  0  0  0  0  0  0  0  0  0  0
    9.0416   -4.5450    0.0000 O   0  0  0  0  0  0  0  0  0  0  0  0
    8.3271   -3.3075    0.0000 O   0  0  0  0  0  0  0  0  0  0  0  0
  1  2  2  0  0  0  0
  2  3  1  0  0  0  0
  3  4  2  0  0  0  0
  4  5  1  0  0  0  0
  5  6  2  0  0  0  0
  6  1  1  0  0  0  0
  4  7  1  0  0  0  0
  7  8  1  0  0  0  0
  8  9  1  0  0  0  0
  9 10  1  0  0  0  0
 10  5  1  0  0  0  0
 11 12  2  0  0  0  0
 12  9  1  0  0  0  0
 11 13  1  0  0  0  0
 13 14  2  0  0  0  0
 14 15  1  0  0  0  0
 15 16  2  0  0  0  0
 16 12  1  0  0  0  0
  1 17  1  0  0  0  0
  3 18  1  0  0  0  0
  7 19  2  0  0  0  0
 14 20  1  0  0  0  0
 21 22  1  0  0  0  0
 22 23  1  0  0  0  0
 23 24  1  0  0  0  0
 24 25  1  0  0  0  0
 25 26  1  0  0  0  0
 26 21  1  0  0  0  0
 21 27  1  1  0  0  0
 23 28  1  1  0  0  0
 22 29  1  6  0  0  0
 24 30  1  6  0  0  0
 31 30  1  6  0  0  0
 31 32  1  0  0  0  0
 32 33  1  0  0  0  0
 33 34  1  0  0  0  0
 34 35  1  0  0  0  0
 35 36  1  0  0  0  0
 36 31  1  0  0  0  0
 34 37  1  6  0  0  0
 35 38  1  1  0  0  0
 32 39  1  1  0  0  0
 33 40  1  1  0  0  0
 27 41  1  0  0  0  0
 25 17  1  1  0  0  0
 41 42  1  0  0  0  0
 42 43  1  0  0  0  0
 42 44  2  0  0  0  0
 43 45  1  0  0  0  0
 45 46  2  0  0  0  0
 45 47  1  0  0  0  0
M  END
>  <cdx:fragmentId>
5

$$$$
