98608.cdx
  Mrv1902 05222410212D          

 22 24  0  0  0  0            999 V2000
    5.6643   -6.5597    0.0000 C   0  0  0  0  0  0  0  0  0  0  0  0
    5.6643   -7.3847    0.0000 C   0  0  0  0  0  0  0  0  0  0  0  0
    6.3787   -7.7972    0.0000 C   0  0  0  0  0  0  0  0  0  0  0  0
    7.0932   -7.3847    0.0000 C   0  0  0  0  0  0  0  0  0  0  0  0
    7.8077   -7.7972    0.0000 C   0  0  0  0  0  0  0  0  0  0  0  0
    8.5221   -7.3847    0.0000 C   0  0  0  0  0  0  0  0  0  0  0  0
    8.5221   -6.5597    0.0000 C   0  0  0  0  0  0  0  0  0  0  0  0
    7.8077   -6.1472    0.0000 C   0  0  0  0  0  0  0  0  0  0  0  0
    7.0932   -6.5597    0.0000 C   0  0  0  0  0  0  0  0  0  0  0  0
    6.3787   -6.1472    0.0000 O   0  0  0  0  0  0  0  0  0  0  0  0
    9.3068   -6.3047    0.0000 O   0  0  0  0  0  0  0  0  0  0  0  0
    9.3068   -7.6396    0.0000 C   0  0  0  0  0  0  0  0  0  0  0  0
    9.7917   -6.9722    0.0000 C   0  0  0  0  0  0  0  0  0  0  0  0
    4.9498   -6.1472    0.0000 O   0  0  0  0  0  0  0  0  0  0  0  0
    7.8077   -5.3222    0.0000 O   0  0  0  0  0  0  0  0  0  0  0  0
    8.5221   -4.9097    0.0000 C   0  0  0  0  0  0  0  0  0  0  0  0
    8.5221   -4.0847    0.0000 C   0  0  0  0  0  0  0  0  0  0  0  0
    9.2366   -3.6722    0.0000 C   0  0  0  0  0  0  0  0  0  0  0  0
    9.2366   -2.8472    0.0000 C   0  0  0  0  0  0  0  0  0  0  0  0
    9.9511   -4.0847    0.0000 C   0  0  0  0  0  0  0  0  0  0  0  0
    7.8077   -8.6222    0.0000 O   0  0  0  0  0  0  0  0  0  0  0  0
    8.5221   -9.0347    0.0000 C   0  0  0  0  0  0  0  0  0  0  0  0
  1  2  1  0  0  0  0
  2  3  2  0  0  0  0
  3  4  1  0  0  0  0
  4  5  2  0  0  0  0
  5  6  1  0  0  0  0
  6  7  2  0  0  0  0
  7  8  1  0  0  0  0
  8  9  2  0  0  0  0
  4  9  1  0  0  0  0
  9 10  1  0  0  0  0
  1 10  1  0  0  0  0
 12 13  2  0  0  0  0
 11 13  1  0  0  0  0
 12  6  1  0  0  0  0
 11  7  1  0  0  0  0
  1 14  2  0  0  0  0
 16 17  1  0  0  0  0
 17 18  2  0  0  0  0
 18 19  1  0  0  0  0
 15 16  1  0  0  0  0
 18 20  1  0  0  0  0
  8 15  1  0  0  0  0
 21 22  1  0  0  0  0
  5 21  1  0  0  0  0
M  END
>  <cdx:fragmentId>
5

$$$$
