986099.cdx
  Mrv1902 05222410192D          

 17 18  0  0  0  0            999 V2000
    7.1939   -8.6375    0.0000 C   0  0  0  0  0  0  0  0  0  0  0  0
    7.9103   -9.0466    0.0000 C   0  0  0  0  0  0  0  0  0  0  0  0
    7.9142   -9.8716    0.0000 C   0  0  0  0  0  0  0  0  0  0  0  0
    7.2016  -10.2875    0.0000 C   0  0  0  0  0  0  0  0  0  0  0  0
    6.4852   -9.8784    0.0000 C   0  0  1  0  0  0  0  0  0  0  0  0
    5.7727  -10.2942    0.0000 C   0  0  0  0  0  0  0  0  0  0  0  0
    5.0563   -9.8851    0.0000 C   0  0  0  0  0  0  0  0  0  0  0  0
    5.0524   -9.0601    0.0000 C   0  0  0  0  0  0  0  0  0  0  0  0
    5.7650   -8.6443    0.0000 C   0  0  0  0  0  0  0  0  0  0  0  0
    6.4814   -9.0534    0.0000 C   0  0  2  0  0  0  0  0  0  0  0  0
    8.6228   -8.6308    0.0000 O   0  0  0  0  0  0  0  0  0  0  0  0
    8.6345  -11.1058    0.0000 C   0  0  0  0  0  0  0  0  0  0  0  0
    8.6306  -10.2808    0.0000 C   0  0  0  0  0  0  0  0  0  0  0  0
    9.3431   -9.8649    0.0000 C   0  0  0  0  0  0  0  0  0  0  0  0
    5.7766  -11.1192    0.0000 C   0  0  0  0  0  0  0  0  0  0  0  0
    6.4775   -8.2284    0.0000 C   0  0  0  0  0  0  0  0  0  0  0  0
    6.4891  -10.7034    0.0000 H   0  0  0  0  0  0  0  0  0  0  0  0
  1  2  1  0  0  0  0
  2  3  1  0  0  0  0
  3  4  1  0  0  0  0
  4  5  1  0  0  0  0
  5  6  1  0  0  0  0
  6  7  1  0  0  0  0
  7  8  1  0  0  0  0
  8  9  1  0  0  0  0
  9 10  1  0  0  0  0
  1 10  1  0  0  0  0
  5 10  1  0  0  0  0
  2 11  2  0  0  0  0
 12 13  1  0  0  0  0
 13 14  1  0  0  0  0
  3 13  2  0  0  0  0
  6 15  2  0  0  0  0
 10 16  1  1  0  0  0
  5 17  1  6  0  0  0
M  END
>  <cdx:fragmentId>
207

$$$$
