98602.cdx
  Mrv1902 05222410242D          

 50 54  0  0  0  0            999 V2000
    7.2328   -6.7650    0.0000 C   0  0  2  0  0  0  0  0  0  0  0  0
    7.2328   -7.5900    0.0000 C   0  0  2  0  0  0  0  0  0  0  0  0
    7.8778   -8.1044    0.0000 C   0  0  1  0  0  0  0  0  0  0  0  0
    8.6822   -7.9208    0.0000 C   0  0  1  0  0  0  0  0  0  0  0  0
    9.0401   -7.1775    0.0000 C   0  0  1  0  0  0  0  0  0  0  0  0
    8.6822   -6.4342    0.0000 C   0  0  2  0  0  0  0  0  0  0  0  0
    7.8778   -6.2506    0.0000 C   0  0  2  0  0  0  0  0  0  0  0  0
    6.4482   -6.5101    0.0000 C   0  0  0  0  0  0  0  0  0  0  0  0
    5.9633   -7.1775    0.0000 C   0  0  1  0  0  0  0  0  0  0  0  0
    6.4482   -7.8449    0.0000 C   0  0  2  0  0  0  0  0  0  0  0  0
    9.2433   -5.8294    0.0000 C   0  0  2  0  0  0  0  0  0  0  0  0
    9.0001   -5.0411    0.0000 C   0  0  1  0  0  0  0  0  0  0  0  0
    8.1958   -4.8575    0.0000 C   0  0  0  0  0  0  0  0  0  0  0  0
    7.6347   -5.4623    0.0000 C   0  0  1  0  0  0  0  0  0  0  0  0
    8.0575   -6.9575    0.0000 O   0  0  0  0  0  0  0  0  0  0  0  0
    9.0001   -4.2161    0.0000 C   0  0  0  0  0  0  0  0  0  0  0  0
    8.2857   -3.8036    0.0000 C   0  0  0  0  0  0  0  0  0  0  0  0
    9.7146   -3.8036    0.0000 C   0  0  0  0  0  0  0  0  0  0  0  0
   10.0476   -6.0130    0.0000 O   0  0  0  0  0  0  0  0  0  0  0  0
    5.1383   -7.1775    0.0000 C   0  0  0  0  0  0  0  0  0  0  0  0
    6.1933   -8.6296    0.0000 O   0  0  0  0  0  0  0  0  0  0  0  0
    7.6943   -8.9087    0.0000 O   0  0  0  0  0  0  0  0  0  0  0  0
    8.6822   -8.7458    0.0000 C   0  0  0  0  0  0  0  0  0  0  0  0
    9.4791   -6.6477    0.0000 H   0  0  0  0  0  0  0  0  0  0  0  0
    9.7146   -4.6286    0.0000 O   0  0  0  0  0  0  0  0  0  0  0  0
    6.8304   -5.2787    0.0000 C   0  0  0  0  0  0  0  0  0  0  0  0
    8.4612   -5.6673    0.0000 O   0  0  0  0  0  0  0  0  0  0  0  0
    7.0193   -5.9681    0.0000 H   0  0  0  0  0  0  0  0  0  0  0  0
    9.8651   -7.1775    0.0000 H   0  0  0  0  0  0  0  0  0  0  0  0
    9.3966   -9.1583    0.0000 O   0  0  0  0  0  0  0  0  0  0  0  0
    9.3966   -8.3333    0.0000 O   0  0  0  0  0  0  0  0  0  0  0  0
    9.3966   -9.9833    0.0000 C   0  0  0  0  0  0  0  0  0  0  0  0
   10.1111  -10.3958    0.0000 C   0  0  0  0  0  0  0  0  0  0  0  0
    8.6822  -10.3958    0.0000 O   0  0  0  0  0  0  0  0  0  0  0  0
   10.1111  -11.2208    0.0000 C   0  0  0  0  0  0  0  0  0  0  0  0
   10.8256  -11.6333    0.0000 C   0  0  0  0  0  0  0  0  0  0  0  0
   11.5400  -11.2208    0.0000 C   0  0  0  0  0  0  0  0  0  0  0  0
   11.5400  -10.3958    0.0000 C   0  0  0  0  0  0  0  0  0  0  0  0
   10.8256   -9.9833    0.0000 C   0  0  0  0  0  0  0  0  0  0  0  0
    5.4763   -9.0377    0.0000 C   0  0  0  0  0  0  0  0  0  0  0  0
    5.4712   -9.8627    0.0000 O   0  0  0  0  0  0  0  0  0  0  0  0
    4.7644   -8.6208    0.0000 C   0  0  0  0  0  0  0  0  0  0  0  0
    4.0474   -9.0289    0.0000 C   0  0  0  0  0  0  0  0  0  0  0  0
    3.3354   -8.6120    0.0000 C   0  0  0  0  0  0  0  0  0  0  0  0
    2.6185   -9.0202    0.0000 C   0  0  0  0  0  0  0  0  0  0  0  0
    1.2786  -12.3573    0.0000 C   0  0  0  0  0  0  0  0  0  0  0  0
    1.2564  -11.5326    0.0000 C   0  0  0  0  0  0  0  0  0  0  0  0
    1.9596  -11.1011    0.0000 C   0  0  0  0  0  0  0  0  0  0  0  0
    1.9375  -10.2764    0.0000 C   0  0  0  0  0  0  0  0  0  0  0  0
    2.6406   -9.8449    0.0000 C   0  0  0  0  0  0  0  0  0  0  0  0
  1  2  1  0  0  0  0
  2  3  1  0  0  0  0
  3  4  1  0  0  0  0
  4  5  1  0  0  0  0
  5  6  1  0  0  0  0
  6  7  1  0  0  0  0
  7  1  1  0  0  0  0
  1  8  1  0  0  0  0
  8  9  1  0  0  0  0
  9 10  1  0  0  0  0
 10  2  1  0  0  0  0
  6 11  1  0  0  0  0
 11 12  1  0  0  0  0
 12 13  1  0  0  0  0
 13 14  1  0  0  0  0
 14  7  1  0  0  0  0
  2 15  1  1  0  0  0
 12 16  1  0  0  0  0
 16 17  1  0  0  0  0
 16 18  2  0  0  0  0
 11 19  1  6  0  0  0
  9 20  1  1  0  0  0
 10 21  1  1  0  0  0
  3 22  1  1  0  0  0
  4 23  1  1  0  0  0
  6 24  1  1  0  0  0
 12 25  1  6  0  0  0
 14 26  1  6  0  0  0
  7 27  1  6  0  0  0
  1 28  1  6  0  0  0
  5 29  1  1  0  0  0
 23 30  1  0  0  0  0
 15  5  1  0  0  0  0
  4 31  1  6  0  0  0
 30 32  1  0  0  0  0
 32 33  1  0  0  0  0
 32 34  2  0  0  0  0
 33 35  2  0  0  0  0
 35 36  1  0  0  0  0
 36 37  2  0  0  0  0
 37 38  1  0  0  0  0
 38 39  2  0  0  0  0
 39 33  1  0  0  0  0
 21 40  1  0  0  0  0
 40 41  2  0  0  0  0
 40 42  1  0  0  0  0
 42 43  2  0  0  0  0
 43 44  1  0  0  0  0
 44 45  2  0  0  0  0
 47 46  1  0  0  0  0
 45 50  1  0  0  0  0
 48 47  1  0  0  0  0
 49 48  1  0  0  0  0
 50 49  1  0  0  0  0
M  END
>  <cdx:fragmentId>
5

$$$$
