98603.cdx
  Mrv1902 05222410242D          

 48 52  0  0  0  0            999 V2000
    3.5203   -7.4800    0.0000 C   0  0  0  0  0  0  0  0  0  0  0  0
    3.5203   -8.3050    0.0000 C   0  0  0  0  0  0  0  0  0  0  0  0
    4.1653   -8.8194    0.0000 C   0  0  0  0  0  0  0  0  0  0  0  0
    4.9697   -8.6358    0.0000 C   0  0  1  0  0  0  0  0  0  0  0  0
    5.3276   -7.8925    0.0000 C   0  0  2  0  0  0  0  0  0  0  0  0
    4.9697   -7.1492    0.0000 C   0  0  0  0  0  0  0  0  0  0  0  0
    4.1653   -6.9656    0.0000 C   0  0  2  0  0  0  0  0  0  0  0  0
    2.7357   -7.2251    0.0000 C   0  0  0  0  0  0  0  0  0  0  0  0
    2.2508   -7.8925    0.0000 C   0  0  0  0  0  0  0  0  0  0  0  0
    2.7357   -8.5599    0.0000 C   0  0  0  0  0  0  0  0  0  0  0  0
    5.5308   -6.5444    0.0000 C   0  0  2  0  0  0  0  0  0  0  0  0
    5.2876   -5.7561    0.0000 C   0  0  1  0  0  0  0  0  0  0  0  0
    4.4833   -5.5725    0.0000 C   0  0  0  0  0  0  0  0  0  0  0  0
    3.9222   -6.1773    0.0000 C   0  0  1  0  0  0  0  0  0  0  0  0
    5.2876   -4.9311    0.0000 C   0  0  0  0  0  0  0  0  0  0  0  0
    4.5732   -4.5186    0.0000 C   0  0  0  0  0  0  0  0  0  0  0  0
    6.0021   -4.5186    0.0000 C   0  0  0  0  0  0  0  0  0  0  0  0
    6.3351   -6.7280    0.0000 O   0  0  0  0  0  0  0  0  0  0  0  0
    1.4258   -7.8925    0.0000 C   0  0  0  0  0  0  0  0  0  0  0  0
    2.4808   -9.3446    0.0000 O   0  0  0  0  0  0  0  0  0  0  0  0
    3.9818   -9.6237    0.0000 O   0  0  0  0  0  0  0  0  0  0  0  0
    4.9697   -9.4608    0.0000 C   0  0  0  0  0  0  0  0  0  0  0  0
    6.0021   -5.3436    0.0000 O   0  0  0  0  0  0  0  0  0  0  0  0
    3.1179   -5.9937    0.0000 C   0  0  0  0  0  0  0  0  0  0  0  0
    4.7487   -6.3823    0.0000 O   0  0  0  0  0  0  0  0  0  0  0  0
    5.6841   -9.8733    0.0000 O   0  0  0  0  0  0  0  0  0  0  0  0
    5.7475   -8.5525    0.0000 O   0  0  0  0  0  0  0  0  0  0  0  0
    3.3068   -9.1019    0.0000 O   0  0  0  0  0  0  0  0  0  0  0  0
    7.0496   -6.3155    0.0000 C   0  0  0  0  0  0  0  0  0  0  0  0
    7.7641   -6.7280    0.0000 C   0  0  0  0  0  0  0  0  0  0  0  0
    7.0496   -5.4905    0.0000 O   0  0  0  0  0  0  0  0  0  0  0  0
    8.4785   -6.3155    0.0000 C   0  0  0  0  0  0  0  0  0  0  0  0
    9.1930   -6.7280    0.0000 C   0  0  0  0  0  0  0  0  0  0  0  0
    9.9075   -6.3155    0.0000 C   0  0  0  0  0  0  0  0  0  0  0  0
   10.6219   -6.7280    0.0000 C   0  0  0  0  0  0  0  0  0  0  0  0
   11.3364   -6.3155    0.0000 C   0  0  0  0  0  0  0  0  0  0  0  0
   12.0509   -6.7280    0.0000 C   0  0  0  0  0  0  0  0  0  0  0  0
   12.7654   -6.3155    0.0000 C   0  0  0  0  0  0  0  0  0  0  0  0
   13.4798   -6.7280    0.0000 C   0  0  0  0  0  0  0  0  0  0  0  0
    4.2401   -4.7842    0.0000 O   0  0  0  0  0  0  0  0  0  0  0  0
    3.5272   -4.3689    0.0000 C   0  0  0  0  0  0  0  0  0  0  0  0
    2.8112   -4.7787    0.0000 C   0  0  0  0  0  0  0  0  0  0  0  0
    3.5304   -3.5440    0.0000 O   0  0  0  0  0  0  0  0  0  0  0  0
    2.0999   -4.3608    0.0000 C   0  0  0  0  0  0  0  0  0  0  0  0
    1.3823   -4.7787    0.0000 C   0  0  0  0  0  0  0  0  0  0  0  0
    1.3823   -5.6037    0.0000 C   0  0  0  0  0  0  0  0  0  0  0  0
    2.0999   -6.0216    0.0000 C   0  0  0  0  0  0  0  0  0  0  0  0
    2.8112   -5.6037    0.0000 C   0  0  0  0  0  0  0  0  0  0  0  0
  1  2  1  0  0  0  0
  2  3  1  0  0  0  0
  3  4  1  0  0  0  0
  4  5  1  0  0  0  0
  5  6  1  0  0  0  0
  6  7  1  0  0  0  0
  7  1  1  0  0  0  0
  1  8  1  0  0  0  0
  8  9  2  0  0  0  0
  9 10  1  0  0  0  0
 10  2  1  0  0  0  0
  6 11  1  0  0  0  0
 11 12  1  0  0  0  0
 12 13  1  0  0  0  0
 13 14  1  0  0  0  0
 14  7  1  0  0  0  0
 12 15  1  0  0  0  0
 15 16  1  0  0  0  0
 15 17  2  0  0  0  0
 11 18  1  6  0  0  0
  9 19  1  0  0  0  0
 10 20  2  0  0  0  0
  3 21  1  0  0  0  0
  4 22  1  0  0  0  0
 12 23  1  6  0  0  0
 14 24  1  6  0  0  0
  7 25  1  6  0  0  0
 22 26  1  0  0  0  0
  5 27  1  6  0  0  0
  4 27  1  6  0  0  0
  2 28  1  0  0  0  0
 18 29  1  0  0  0  0
 29 30  1  0  0  0  0
 29 31  2  0  0  0  0
 30 32  2  0  0  0  0
 32 33  1  0  0  0  0
 33 34  2  0  0  0  0
 34 35  1  0  0  0  0
 35 36  1  0  0  0  0
 36 37  1  0  0  0  0
 37 38  1  0  0  0  0
 38 39  1  0  0  0  0
 13 40  1  0  0  0  0
 40 41  1  0  0  0  0
 41 42  1  0  0  0  0
 41 43  2  0  0  0  0
 42 44  2  0  0  0  0
 44 45  1  0  0  0  0
 45 46  2  0  0  0  0
 46 47  1  0  0  0  0
 47 48  2  0  0  0  0
 48 42  1  0  0  0  0
M  END
>  <cdx:fragmentId>
5

$$$$
