98601.cdx
  Mrv1902 05222410232D          

 50 54  0  0  0  0            999 V2000
    9.3228   -7.7138    0.0000 C   0  0  2  0  0  0  0  0  0  0  0  0
    9.3228   -8.5388    0.0000 C   0  0  2  0  0  0  0  0  0  0  0  0
    9.9678   -9.0531    0.0000 C   0  0  1  0  0  0  0  0  0  0  0  0
   10.7722   -8.8695    0.0000 C   0  0  1  0  0  0  0  0  0  0  0  0
   11.1301   -8.1263    0.0000 C   0  0  1  0  0  0  0  0  0  0  0  0
   10.7722   -7.3830    0.0000 C   0  0  2  0  0  0  0  0  0  0  0  0
    9.9678   -7.1994    0.0000 C   0  0  2  0  0  0  0  0  0  0  0  0
    8.5382   -7.4588    0.0000 C   0  0  0  0  0  0  0  0  0  0  0  0
    8.0533   -8.1263    0.0000 C   0  0  1  0  0  0  0  0  0  0  0  0
    8.5382   -8.7937    0.0000 C   0  0  2  0  0  0  0  0  0  0  0  0
   11.3333   -6.7782    0.0000 C   0  0  2  0  0  0  0  0  0  0  0  0
   11.0901   -5.9898    0.0000 C   0  0  1  0  0  0  0  0  0  0  0  0
   10.2858   -5.8063    0.0000 C   0  0  0  0  0  0  0  0  0  0  0  0
    9.7247   -6.4110    0.0000 C   0  0  1  0  0  0  0  0  0  0  0  0
   10.1200   -7.9475    0.0000 O   0  0  0  0  0  0  0  0  0  0  0  0
   11.0901   -5.1648    0.0000 C   0  0  0  0  0  0  0  0  0  0  0  0
   10.3757   -4.7523    0.0000 C   0  0  0  0  0  0  0  0  0  0  0  0
   11.8046   -4.7523    0.0000 C   0  0  0  0  0  0  0  0  0  0  0  0
   12.1376   -6.9618    0.0000 O   0  0  0  0  0  0  0  0  0  0  0  0
    7.2283   -8.1263    0.0000 C   0  0  0  0  0  0  0  0  0  0  0  0
    8.2833   -9.5783    0.0000 O   0  0  0  0  0  0  0  0  0  0  0  0
    9.7843   -9.8574    0.0000 O   0  0  0  0  0  0  0  0  0  0  0  0
   10.7722   -9.6945    0.0000 C   0  0  0  0  0  0  0  0  0  0  0  0
   11.5691   -7.5965    0.0000 H   0  0  0  0  0  0  0  0  0  0  0  0
   11.8046   -5.5773    0.0000 O   0  0  0  0  0  0  0  0  0  0  0  0
    8.9204   -6.2274    0.0000 C   0  0  0  0  0  0  0  0  0  0  0  0
   10.5512   -6.6160    0.0000 O   0  0  0  0  0  0  0  0  0  0  0  0
    9.1093   -6.9169    0.0000 H   0  0  0  0  0  0  0  0  0  0  0  0
   11.9551   -8.1263    0.0000 H   0  0  0  0  0  0  0  0  0  0  0  0
   11.4866  -10.1070    0.0000 O   0  0  0  0  0  0  0  0  0  0  0  0
   11.4866   -9.2820    0.0000 O   0  0  0  0  0  0  0  0  0  0  0  0
   11.4866  -10.9320    0.0000 C   0  0  0  0  0  0  0  0  0  0  0  0
   12.2011  -11.3445    0.0000 C   0  0  0  0  0  0  0  0  0  0  0  0
   10.7722  -11.3445    0.0000 O   0  0  0  0  0  0  0  0  0  0  0  0
   12.2011  -12.1695    0.0000 C   0  0  0  0  0  0  0  0  0  0  0  0
   12.9156  -12.5820    0.0000 C   0  0  0  0  0  0  0  0  0  0  0  0
   13.6300  -12.1695    0.0000 C   0  0  0  0  0  0  0  0  0  0  0  0
   13.6300  -11.3445    0.0000 C   0  0  0  0  0  0  0  0  0  0  0  0
   12.9156  -10.9320    0.0000 C   0  0  0  0  0  0  0  0  0  0  0  0
    7.5688   -9.9908    0.0000 C   0  0  0  0  0  0  0  0  0  0  0  0
    7.5688  -10.8158    0.0000 O   0  0  0  0  0  0  0  0  0  0  0  0
    6.8543   -9.5783    0.0000 C   0  0  0  0  0  0  0  0  0  0  0  0
    6.1399   -9.9908    0.0000 C   0  0  0  0  0  0  0  0  0  0  0  0
    5.4254   -9.5783    0.0000 C   0  0  0  0  0  0  0  0  0  0  0  0
    4.7109   -9.9908    0.0000 C   0  0  0  0  0  0  0  0  0  0  0  0
    3.9964   -9.5783    0.0000 C   0  0  0  0  0  0  0  0  0  0  0  0
    3.2820   -9.9908    0.0000 C   0  0  0  0  0  0  0  0  0  0  0  0
    2.5675   -9.5783    0.0000 C   0  0  0  0  0  0  0  0  0  0  0  0
    1.8530   -9.9908    0.0000 C   0  0  0  0  0  0  0  0  0  0  0  0
    1.1386   -9.5783    0.0000 C   0  0  0  0  0  0  0  0  0  0  0  0
  1  2  1  0  0  0  0
  2  3  1  0  0  0  0
  3  4  1  0  0  0  0
  4  5  1  0  0  0  0
  5  6  1  0  0  0  0
  6  7  1  0  0  0  0
  7  1  1  0  0  0  0
  1  8  1  0  0  0  0
  8  9  1  0  0  0  0
  9 10  1  0  0  0  0
 10  2  1  0  0  0  0
  6 11  1  0  0  0  0
 11 12  1  0  0  0  0
 12 13  1  0  0  0  0
 13 14  1  0  0  0  0
 14  7  1  0  0  0  0
  2 15  1  1  0  0  0
 12 16  1  0  0  0  0
 16 17  1  0  0  0  0
 16 18  2  0  0  0  0
 11 19  1  6  0  0  0
  9 20  1  1  0  0  0
 10 21  1  1  0  0  0
  3 22  1  1  0  0  0
  4 23  1  1  0  0  0
  6 24  1  1  0  0  0
 12 25  1  6  0  0  0
 14 26  1  6  0  0  0
  7 27  1  6  0  0  0
  1 28  1  6  0  0  0
  5 29  1  1  0  0  0
 23 30  1  0  0  0  0
 15  5  1  0  0  0  0
  4 31  1  6  0  0  0
 30 32  1  0  0  0  0
 32 33  1  0  0  0  0
 32 34  2  0  0  0  0
 33 35  2  0  0  0  0
 35 36  1  0  0  0  0
 36 37  2  0  0  0  0
 37 38  1  0  0  0  0
 38 39  2  0  0  0  0
 39 33  1  0  0  0  0
 21 40  1  0  0  0  0
 40 41  2  0  0  0  0
 40 42  1  0  0  0  0
 42 43  2  0  0  0  0
 43 44  1  0  0  0  0
 44 45  2  0  0  0  0
 45 46  1  0  0  0  0
 46 47  1  0  0  0  0
 47 48  1  0  0  0  0
 48 49  1  0  0  0  0
 49 50  1  0  0  0  0
M  END
>  <cdx:fragmentId>
5

$$$$
