98605.cdx
  Mrv1902 05222410252D          

 57 63  0  0  0  0            999 V2000
    6.3323   -8.6073    0.0000 H   0  0  0  0  0  0  0  0  0  0  0  0
    7.0463   -7.3675    0.0000 C   0  0  0  0  0  0  0  0  0  0  0  0
    7.7595   -8.6027    0.0000 C   0  0  0  0  0  0  0  0  0  0  0  0
    8.4674   -5.7129    0.0000 C   0  0  2  0  0  0  0  0  0  0  0  0
    9.1805   -5.2982    0.0000 C   0  0  0  0  0  0  0  0  0  0  0  0
    9.8963   -5.7084    0.0000 C   0  0  0  0  0  0  0  0  0  0  0  0
    9.8989   -6.5334    0.0000 C   0  0  0  0  0  0  0  0  0  0  0  0
    9.1858   -6.9481    0.0000 C   0  0  2  0  0  0  0  0  0  0  0  0
    9.1884   -7.7731    0.0000 C   0  0  0  0  0  0  0  0  0  0  0  0
    8.4753   -8.1879    0.0000 C   0  0  0  0  0  0  0  0  0  0  0  0
    7.7595   -7.7777    0.0000 C   0  0  2  0  0  0  0  0  0  0  0  0
    7.0463   -8.1925    0.0000 C   0  0  1  0  0  0  0  0  0  0  0  0
    7.0490   -9.0175    0.0000 C   0  0  0  0  0  0  0  0  0  0  0  0
    6.3358   -9.4323    0.0000 C   0  0  0  0  0  0  0  0  0  0  0  0
    5.6200   -9.0221    0.0000 C   0  0  1  0  0  0  0  0  0  0  0  0
    4.9069   -9.4368    0.0000 C   0  0  0  0  0  0  0  0  0  0  0  0
    4.1911   -9.0266    0.0000 C   0  0  2  0  0  0  0  0  0  0  0  0
    4.1885   -8.2016    0.0000 C   0  0  0  0  0  0  0  0  0  0  0  0
    4.9016   -7.7869    0.0000 C   0  0  0  0  0  0  0  0  0  0  0  0
    5.6174   -8.1971    0.0000 C   0  0  2  0  0  0  0  0  0  0  0  0
    6.3305   -7.7823    0.0000 C   0  0  1  0  0  0  0  0  0  0  0  0
    6.3279   -6.9573    0.0000 C   0  0  0  0  0  0  0  0  0  0  0  0
    7.0411   -6.5425    0.0000 C   0  0  0  0  0  0  0  0  0  0  0  0
    7.7568   -6.9527    0.0000 C   0  0  0  0  0  0  0  0  0  0  0  0
    8.4700   -6.5379    0.0000 C   0  0  2  0  0  0  0  0  0  0  0  0
   10.6147   -6.9436    0.0000 O   0  0  0  0  0  0  0  0  0  0  0  0
   12.0695   -8.5781    0.0000 C   0  0  2  0  0  0  0  0  0  0  0  0
   12.7802   -8.1590    0.0000 C   0  0  2  0  0  0  0  0  0  0  0  0
    5.6148   -7.3721    0.0000 C   0  0  0  0  0  0  0  0  0  0  0  0
    5.3217  -10.1500    0.0000 C   0  0  0  0  0  0  0  0  0  0  0  0
    4.4967  -10.1526    0.0000 C   0  0  0  0  0  0  0  0  0  0  0  0
    8.7657   -4.5850    0.0000 C   0  0  0  0  0  0  0  0  0  0  0  0
    9.5907   -4.5824    0.0000 C   0  0  0  0  0  0  0  0  0  0  0  0
    3.4780   -9.4414    0.0000 O   0  0  0  0  0  0  0  0  0  0  0  0
    7.7516   -5.3027    0.0000 O   0  0  0  0  0  0  0  0  0  0  0  0
    5.6227   -9.8471    0.0000 H   0  0  0  0  0  0  0  0  0  0  0  0
    7.7555   -6.1254    0.0000 H   0  0  0  0  0  0  0  0  0  0  0  0
   12.7725   -7.3340    0.0000 C   0  0  1  0  0  0  0  0  0  0  0  0
   12.0543   -6.9282    0.0000 C   0  0  2  0  0  0  0  0  0  0  0  0
    2.0453   -7.7919    0.0000 C   0  0  0  0  0  0  0  0  0  0  0  0
    1.3309   -8.2046    0.0000 C   0  0  1  0  0  0  0  0  0  0  0  0
    1.3311   -9.0296    0.0000 C   0  0  1  0  0  0  0  0  0  0  0  0
    2.0457   -9.4419    0.0000 C   0  0  2  0  0  0  0  0  0  0  0  0
    2.7601   -9.0293    0.0000 C   0  0  1  0  0  0  0  0  0  0  0  0
    2.7599   -8.2043    0.0000 O   0  0  0  0  0  0  0  0  0  0  0  0
    0.6164   -7.7922    0.0000 O   0  0  0  0  0  0  0  0  0  0  0  0
    0.6167   -9.4422    0.0000 O   0  0  0  0  0  0  0  0  0  0  0  0
    2.0459  -10.2669    0.0000 O   0  0  0  0  0  0  0  0  0  0  0  0
   11.3436   -7.3473    0.0000 C   0  0  1  0  0  0  0  0  0  0  0  0
   11.3513   -8.1723    0.0000 O   0  0  0  0  0  0  0  0  0  0  0  0
   12.0772   -9.4031    0.0000 C   0  0  0  0  0  0  0  0  0  0  0  0
   13.4831   -6.9149    0.0000 O   0  0  0  0  0  0  0  0  0  0  0  0
   13.4984   -8.5649    0.0000 O   0  0  0  0  0  0  0  0  0  0  0  0
   12.0466   -6.1032    0.0000 O   0  0  0  0  0  0  0  0  0  0  0  0
   12.7954   -9.8089    0.0000 O   0  0  0  0  0  0  0  0  0  0  0  0
    9.9042   -8.1834    0.0000 O   0  0  0  0  0  0  0  0  0  0  0  0
    9.9016   -7.3584    0.0000 C   0  0  0  0  0  0  0  0  0  0  0  0
 21  1  1  6  0  0  0
 12  2  1  1  0  0  0
 11  3  1  6  0  0  0
  4  5  1  0  0  0  0
  5  6  1  0  0  0  0
  6  7  1  0  0  0  0
  7  8  1  0  0  0  0
  8  9  1  0  0  0  0
  9 10  1  0  0  0  0
 10 11  1  0  0  0  0
 11 12  1  0  0  0  0
 12 13  1  0  0  0  0
 13 14  1  0  0  0  0
 14 15  1  0  0  0  0
 15 16  1  0  0  0  0
 16 17  1  0  0  0  0
 17 18  1  0  0  0  0
 18 19  1  0  0  0  0
 19 20  1  0  0  0  0
 15 20  1  0  0  0  0
 20 21  1  0  0  0  0
 12 21  1  0  0  0  0
 21 22  1  0  0  0  0
 22 23  1  0  0  0  0
 23 24  2  0  0  0  0
 11 24  1  0  0  0  0
 24 25  1  0  0  0  0
  8 25  1  0  0  0  0
  4 25  1  0  0  0  0
  8 57  1  1  0  0  0
 20 29  1  1  0  0  0
 16 30  1  0  0  0  0
 16 31  1  0  0  0  0
  5 32  1  0  0  0  0
  5 33  1  0  0  0  0
 17 34  1  1  0  0  0
  4 35  1  6  0  0  0
 15 36  1  6  0  0  0
 25 37  1  1  0  0  0
 40 41  1  0  0  0  0
 41 42  1  0  0  0  0
 42 43  1  0  0  0  0
 43 44  1  0  0  0  0
 44 45  1  0  0  0  0
 45 40  1  0  0  0  0
 41 46  1  1  0  0  0
 42 47  1  1  0  0  0
 43 48  1  6  0  0  0
 44 34  1  1  0  0  0
 27 28  1  0  0  0  0
 28 38  1  0  0  0  0
 38 39  1  0  0  0  0
 39 49  1  0  0  0  0
 49 50  1  0  0  0  0
 50 27  1  0  0  0  0
 27 51  1  1  0  0  0
 38 52  1  1  0  0  0
 28 53  1  6  0  0  0
 39 54  1  6  0  0  0
 51 55  1  0  0  0  0
 57 56  2  0  0  0  0
 57 26  1  0  0  0  0
 49 26  1  1  0  0  0
M  END
>  <cdx:fragmentId>
5

$$$$
