98614.cdx
  Mrv1902 05222410232D          

 25 27  0  0  0  0            999 V2000
    4.6112   -7.8100    0.0000 C   0  0  0  0  0  0  0  0  0  0  0  0
    4.6112   -8.6350    0.0000 C   0  0  0  0  0  0  0  0  0  0  0  0
    5.3256   -9.0475    0.0000 C   0  0  0  0  0  0  0  0  0  0  0  0
    6.0401   -8.6350    0.0000 C   0  0  0  0  0  0  0  0  0  0  0  0
    6.0401   -7.8100    0.0000 C   0  0  0  0  0  0  0  0  0  0  0  0
    5.3256   -7.3975    0.0000 C   0  0  0  0  0  0  0  0  0  0  0  0
    6.7546   -9.0475    0.0000 C   0  0  0  0  0  0  0  0  0  0  0  0
    7.4691   -8.6350    0.0000 C   0  0  0  0  0  0  0  0  0  0  0  0
    7.4691   -7.8100    0.0000 C   0  0  0  0  0  0  0  0  0  0  0  0
    6.7546   -7.3975    0.0000 O   0  0  0  0  0  0  0  0  0  0  0  0
    8.1835   -9.0475    0.0000 C   0  0  0  0  0  0  0  0  0  0  0  0
    8.8980   -8.6350    0.0000 C   0  0  0  0  0  0  0  0  0  0  0  0
    8.8980   -7.8100    0.0000 C   0  0  0  0  0  0  0  0  0  0  0  0
    9.6125   -9.0475    0.0000 C   0  0  0  0  0  0  0  0  0  0  0  0
   10.3269   -8.6350    0.0000 C   0  0  0  0  0  0  0  0  0  0  0  0
   10.3269   -7.8100    0.0000 C   0  0  0  0  0  0  0  0  0  0  0  0
    9.6125   -7.3975    0.0000 C   0  0  0  0  0  0  0  0  0  0  0  0
    6.7546   -9.8725    0.0000 O   0  0  0  0  0  0  0  0  0  0  0  0
    5.3256   -9.8725    0.0000 O   0  0  0  0  0  0  0  0  0  0  0  0
    3.8967   -7.3975    0.0000 O   0  0  0  0  0  0  0  0  0  0  0  0
    9.6125   -9.8725    0.0000 O   0  0  0  0  0  0  0  0  0  0  0  0
   11.0414   -7.3975    0.0000 O   0  0  0  0  0  0  0  0  0  0  0  0
    5.3256   -6.5725    0.0000 O   0  0  0  0  0  0  0  0  0  0  0  0
    4.6112   -6.1600    0.0000 C   0  0  0  0  0  0  0  0  0  0  0  0
    3.8967   -9.0475    0.0000 C   0  0  0  0  0  0  0  0  0  0  0  0
  1  2  2  0  0  0  0
  2  3  1  0  0  0  0
  3  4  2  0  0  0  0
  4  5  1  0  0  0  0
  5  6  2  0  0  0  0
  6  1  1  0  0  0  0
  4  7  1  0  0  0  0
  7  8  1  0  0  0  0
  8  9  1  0  0  0  0
  9 10  1  0  0  0  0
 10  5  1  0  0  0  0
  8 11  1  0  0  0  0
 11 12  1  0  0  0  0
 12 13  2  0  0  0  0
 12 14  1  0  0  0  0
 14 15  2  0  0  0  0
 15 16  1  0  0  0  0
 16 17  2  0  0  0  0
 17 13  1  0  0  0  0
  7 18  2  0  0  0  0
  3 19  1  0  0  0  0
  1 20  1  0  0  0  0
 14 21  1  0  0  0  0
 16 22  1  0  0  0  0
  6 23  1  0  0  0  0
 23 24  1  0  0  0  0
  2 25  1  0  0  0  0
M  END
>  <cdx:fragmentId>
5

$$$$
