9986191.cdx
  Mrv1902 05222410252D          

 43 47  0  0  0  0            999 V2000
    8.8539   -8.7032    0.0000 O   0  0  0  0  0  0  0  0  0  0  0  0
    7.4250   -9.5282    0.0000 O   0  0  0  0  0  0  0  0  0  0  0  0
    5.2816   -8.2907    0.0000 O   0  0  0  0  0  0  0  0  0  0  0  0
    5.9961   -8.7032    0.0000 C   0  0  0  0  0  0  0  0  0  0  0  0
   10.2829   -6.2282    0.0000 O   0  0  0  0  0  0  0  0  0  0  0  0
   11.7118   -7.0532    0.0000 O   0  0  0  0  0  0  0  0  0  0  0  0
   11.7118   -8.7032    0.0000 O   0  0  0  0  0  0  0  0  0  0  0  0
   10.9974   -9.9407    0.0000 O   0  0  0  0  0  0  0  0  0  0  0  0
   10.2829   -9.5282    0.0000 C   0  0  0  0  0  0  0  0  0  0  0  0
   10.2829   -8.7032    0.0000 C   0  0  2  0  0  0  0  0  0  0  0  0
   10.9974   -8.2907    0.0000 C   0  0  2  0  0  0  0  0  0  0  0  0
   10.9974   -7.4657    0.0000 C   0  0  1  0  0  0  0  0  0  0  0  0
   10.2829   -7.0532    0.0000 C   0  0  2  0  0  0  0  0  0  0  0  0
    9.5684   -7.4657    0.0000 C   0  0  1  0  0  0  0  0  0  0  0  0
    9.5684   -8.2907    0.0000 O   0  0  0  0  0  0  0  0  0  0  0  0
    8.8539   -7.0532    0.0000 O   0  0  0  0  0  0  0  0  0  0  0  0
    6.7105   -8.2907    0.0000 C   0  0  2  0  0  0  0  0  0  0  0  0
    7.4250   -8.7032    0.0000 C   0  0  1  0  0  0  0  0  0  0  0  0
    8.1395   -8.2907    0.0000 C   0  0  1  0  0  0  0  0  0  0  0  0
    8.1395   -7.4657    0.0000 C   0  0  2  0  0  0  0  0  0  0  0  0
    7.4250   -7.0532    0.0000 C   0  0  1  0  0  0  0  0  0  0  0  0
    6.7105   -7.4657    0.0000 O   0  0  0  0  0  0  0  0  0  0  0  0
    7.4250   -6.2282    0.0000 O   0  0  0  0  0  0  0  0  0  0  0  0
    4.5671   -7.0532    0.0000 O   0  0  0  0  0  0  0  0  0  0  0  0
    3.1382   -4.5782    0.0000 O   0  0  0  0  0  0  0  0  0  0  0  0
    9.5684   -3.3407    0.0000 O   0  0  0  0  0  0  0  0  0  0  0  0
    7.4250   -3.7532    0.0000 C   0  0  0  0  0  0  0  0  0  0  0  0
    8.1395   -3.3407    0.0000 C   0  0  0  0  0  0  0  0  0  0  0  0
    8.8539   -3.7532    0.0000 C   0  0  0  0  0  0  0  0  0  0  0  0
    8.8539   -4.5782    0.0000 C   0  0  0  0  0  0  0  0  0  0  0  0
    8.1395   -4.9907    0.0000 C   0  0  0  0  0  0  0  0  0  0  0  0
    7.4250   -4.5782    0.0000 C   0  0  0  0  0  0  0  0  0  0  0  0
    5.9961   -7.0532    0.0000 O   0  0  0  0  0  0  0  0  0  0  0  0
    5.9961   -4.5782    0.0000 O   0  0  0  0  0  0  0  0  0  0  0  0
    5.2816   -4.9907    0.0000 C   0  0  0  0  0  0  0  0  0  0  0  0
    4.5671   -4.5782    0.0000 C   0  0  0  0  0  0  0  0  0  0  0  0
    3.8526   -4.9907    0.0000 C   0  0  0  0  0  0  0  0  0  0  0  0
    3.8526   -5.8157    0.0000 C   0  0  0  0  0  0  0  0  0  0  0  0
    4.5671   -6.2282    0.0000 C   0  0  0  0  0  0  0  0  0  0  0  0
    5.2816   -5.8157    0.0000 C   0  0  0  0  0  0  0  0  0  0  0  0
    5.9961   -6.2282    0.0000 C   0  0  0  0  0  0  0  0  0  0  0  0
    6.7105   -5.8157    0.0000 C   0  0  0  0  0  0  0  0  0  0  0  0
    6.7105   -4.9907    0.0000 C   0  0  0  0  0  0  0  0  0  0  0  0
 42 23  1  0  0  0  0
 21 23  1  1  0  0  0
 19  1  1  1  0  0  0
 18  2  1  1  0  0  0
 17  4  1  1  0  0  0
  4  3  1  0  0  0  0
 20 16  1  6  0  0  0
 14 16  1  1  0  0  0
 13  5  1  6  0  0  0
 12  6  1  1  0  0  0
 11  7  1  6  0  0  0
 10  9  1  1  0  0  0
  9  8  1  0  0  0  0
 15 10  1  0  0  0  0
 11 10  1  0  0  0  0
 12 11  1  0  0  0  0
 13 12  1  0  0  0  0
 14 13  1  0  0  0  0
 15 14  1  0  0  0  0
 22 17  1  0  0  0  0
 18 17  1  0  0  0  0
 19 18  1  0  0  0  0
 20 19  1  0  0  0  0
 21 20  1  0  0  0  0
 22 21  1  0  0  0  0
 39 24  1  0  0  0  0
 37 25  1  0  0  0  0
 43 32  1  0  0  0  0
 29 26  1  0  0  0  0
 32 27  2  0  0  0  0
 28 27  1  0  0  0  0
 29 28  2  0  0  0  0
 30 29  1  0  0  0  0
 31 30  2  0  0  0  0
 32 31  1  0  0  0  0
 41 33  2  0  0  0  0
 43 34  1  0  0  0  0
 35 34  1  0  0  0  0
 40 35  2  0  0  0  0
 36 35  1  0  0  0  0
 37 36  2  0  0  0  0
 38 37  1  0  0  0  0
 39 38  2  0  0  0  0
 40 39  1  0  0  0  0
 41 40  1  0  0  0  0
 42 41  1  0  0  0  0
 43 42  2  0  0  0  0
M  END
>  <cdx:fragmentId>
61

$$$$
