98619.cdx
  Mrv1902 05222410232D          

 53 57  0  0  0  0            999 V2000
    7.0999   -6.1050    0.0000 C   0  0  2  0  0  0  0  0  0  0  0  0
    7.0999   -6.9300    0.0000 C   0  0  2  0  0  0  0  0  0  0  0  0
    7.8144   -7.3425    0.0000 C   0  0  1  0  0  0  0  0  0  0  0  0
    8.5289   -6.9300    0.0000 C   0  0  2  0  0  0  0  0  0  0  0  0
    8.5289   -6.1050    0.0000 C   0  0  1  0  0  0  0  0  0  0  0  0
    7.8144   -5.6925    0.0000 O   0  0  0  0  0  0  0  0  0  0  0  0
    5.6710   -6.1050    0.0000 O   0  0  0  0  0  0  0  0  0  0  0  0
    9.2433   -5.6925    0.0000 O   0  0  0  0  0  0  0  0  0  0  0  0
    7.8144   -8.1675    0.0000 O   0  0  0  0  0  0  0  0  0  0  0  0
    6.3855   -7.3425    0.0000 O   0  0  0  0  0  0  0  0  0  0  0  0
    9.2433   -7.3425    0.0000 O   0  0  0  0  0  0  0  0  0  0  0  0
    4.9589   -5.6884    0.0000 C   0  0  0  0  0  0  0  0  0  0  0  0
    7.0999   -8.5800    0.0000 C   0  0  2  0  0  0  0  0  0  0  0  0
    6.3855   -8.1675    0.0000 O   0  0  0  0  0  0  0  0  0  0  0  0
    5.6710   -8.5800    0.0000 C   0  0  2  0  0  0  0  0  0  0  0  0
    5.6710   -9.4050    0.0000 C   0  0  1  0  0  0  0  0  0  0  0  0
    6.3855   -9.8175    0.0000 C   0  0  2  0  0  0  0  0  0  0  0  0
    7.0999   -9.4050    0.0000 C   0  0  1  0  0  0  0  0  0  0  0  0
    4.9565   -9.8175    0.0000 O   0  0  0  0  0  0  0  0  0  0  0  0
    4.9565   -8.1675    0.0000 C   0  0  0  0  0  0  0  0  0  0  0  0
    6.3855  -10.6425    0.0000 O   0  0  0  0  0  0  0  0  0  0  0  0
    7.8144   -9.8175    0.0000 O   0  0  0  0  0  0  0  0  0  0  0  0
    7.8144  -10.6425    0.0000 C   0  0  2  0  0  0  0  0  0  0  0  0
    7.0999  -11.0550    0.0000 O   0  0  0  0  0  0  0  0  0  0  0  0
    7.0999  -11.8800    0.0000 C   0  0  0  0  0  0  0  0  0  0  0  0
    7.8144  -12.2925    0.0000 C   0  0  1  0  0  0  0  0  0  0  0  0
    8.5289  -11.8800    0.0000 C   0  0  1  0  0  0  0  0  0  0  0  0
    8.5289  -11.0550    0.0000 C   0  0  1  0  0  0  0  0  0  0  0  0
    9.2433  -12.2925    0.0000 O   0  0  0  0  0  0  0  0  0  0  0  0
    7.8144  -13.1175    0.0000 O   0  0  0  0  0  0  0  0  0  0  0  0
    9.2433  -10.6425    0.0000 O   0  0  0  0  0  0  0  0  0  0  0  0
    9.9578   -6.1050    0.0000 C   0  0  0  0  0  0  0  0  0  0  0  0
   10.6723   -5.6925    0.0000 C   0  0  0  0  0  0  0  0  0  0  0  0
   11.3868   -6.1050    0.0000 C   0  0  0  0  0  0  0  0  0  0  0  0
   11.3868   -6.9300    0.0000 C   0  0  0  0  0  0  0  0  0  0  0  0
   12.1012   -7.3425    0.0000 C   0  0  0  0  0  0  0  0  0  0  0  0
   12.8157   -6.9300    0.0000 C   0  0  0  0  0  0  0  0  0  0  0  0
   12.8157   -6.1050    0.0000 C   0  0  0  0  0  0  0  0  0  0  0  0
   12.1012   -5.6925    0.0000 C   0  0  0  0  0  0  0  0  0  0  0  0
   13.5302   -7.3425    0.0000 O   0  0  0  0  0  0  0  0  0  0  0  0
   13.5302   -5.6925    0.0000 O   0  0  0  0  0  0  0  0  0  0  0  0
    4.9636   -4.8634    0.0000 O   0  0  0  0  0  0  0  0  0  0  0  0
    4.2421   -6.0968    0.0000 C   0  0  0  0  0  0  0  0  0  0  0  0
    3.5300   -5.6803    0.0000 C   0  0  0  0  0  0  0  0  0  0  0  0
    2.8131   -6.0887    0.0000 C   0  0  0  0  0  0  0  0  0  0  0  0
    2.1010   -5.6721    0.0000 C   0  0  0  0  0  0  0  0  0  0  0  0
    1.3842   -6.0805    0.0000 C   0  0  0  0  0  0  0  0  0  0  0  0
    1.3795   -6.9055    0.0000 C   0  0  0  0  0  0  0  0  0  0  0  0
    2.0916   -7.3221    0.0000 C   0  0  0  0  0  0  0  0  0  0  0  0
    2.8084   -6.9136    0.0000 C   0  0  0  0  0  0  0  0  0  0  0  0
    0.6627   -7.3139    0.0000 O   0  0  0  0  0  0  0  0  0  0  0  0
    0.6721   -5.6639    0.0000 O   0  0  0  0  0  0  0  0  0  0  0  0
    6.3855   -5.6925    0.0000 C   0  0  0  0  0  0  0  0  0  0  0  0
  1  2  1  0  0  0  0
  2  3  1  0  0  0  0
  3  4  1  0  0  0  0
  4  5  1  0  0  0  0
  5  6  1  0  0  0  0
  6  1  1  0  0  0  0
  1 53  1  1  0  0  0
  5  8  1  1  0  0  0
  3  9  1  1  0  0  0
  2 10  1  6  0  0  0
  4 11  1  6  0  0  0
  7 12  1  0  0  0  0
 13  9  1  1  0  0  0
 13 14  1  0  0  0  0
 14 15  1  0  0  0  0
 15 16  1  0  0  0  0
 16 17  1  0  0  0  0
 17 18  1  0  0  0  0
 18 13  1  0  0  0  0
 16 19  1  1  0  0  0
 15 20  1  6  0  0  0
 17 21  1  6  0  0  0
 18 22  1  6  0  0  0
 23 22  1  1  0  0  0
 23 24  1  0  0  0  0
 24 25  1  0  0  0  0
 25 26  1  0  0  0  0
 26 27  1  0  0  0  0
 27 28  1  0  0  0  0
 28 23  1  0  0  0  0
 27 29  1  1  0  0  0
 26 30  1  1  0  0  0
 28 31  1  6  0  0  0
  8 32  1  0  0  0  0
 32 33  1  0  0  0  0
 33 34  1  0  0  0  0
 34 35  2  0  0  0  0
 35 36  1  0  0  0  0
 36 37  2  0  0  0  0
 37 38  1  0  0  0  0
 38 39  2  0  0  0  0
 39 34  1  0  0  0  0
 37 40  1  0  0  0  0
 38 41  1  0  0  0  0
 12 42  2  0  0  0  0
 12 43  1  0  0  0  0
 43 44  1  0  0  0  0
 44 45  1  0  0  0  0
 45 46  2  0  0  0  0
 46 47  1  0  0  0  0
 47 48  2  0  0  0  0
 48 49  1  0  0  0  0
 49 50  2  0  0  0  0
 50 45  1  0  0  0  0
 48 51  1  0  0  0  0
 53  7  1  0  0  0  0
 47 52  1  0  0  0  0
M  END
>  <cdx:fragmentId>
5

$$$$
