98611.cdx
  Mrv1902 05222410252D          

 38 41  0  0  0  0            999 V2000
    7.4841   -5.7697    0.0000 C   0  0  0  0  0  0  0  0  0  0  0  0
    7.4841   -6.5947    0.0000 C   0  0  0  0  0  0  0  0  0  0  0  0
    6.7697   -7.0072    0.0000 C   0  0  0  0  0  0  0  0  0  0  0  0
    6.7697   -7.8322    0.0000 O   0  0  0  0  0  0  0  0  0  0  0  0
    6.0552   -6.5947    0.0000 C   0  0  0  0  0  0  0  0  0  0  0  0
    5.3407   -7.0072    0.0000 C   0  0  0  0  0  0  0  0  0  0  0  0
    5.3407   -7.8322    0.0000 O   0  0  0  0  0  0  0  0  0  0  0  0
    4.6263   -6.5947    0.0000 C   0  0  0  0  0  0  0  0  0  0  0  0
    4.6263   -5.7697    0.0000 C   0  0  0  0  0  0  0  0  0  0  0  0
    3.9118   -5.3572    0.0000 O   0  0  0  0  0  0  0  0  0  0  0  0
    5.3407   -5.3572    0.0000 C   0  0  0  0  0  0  0  0  0  0  0  0
    6.0552   -5.7697    0.0000 C   0  0  0  0  0  0  0  0  0  0  0  0
    6.7697   -5.3572    0.0000 O   0  0  0  0  0  0  0  0  0  0  0  0
    8.1986   -5.3572    0.0000 C   0  0  0  0  0  0  0  0  0  0  0  0
    8.9131   -5.7697    0.0000 C   0  0  0  0  0  0  0  0  0  0  0  0
    9.6275   -5.3572    0.0000 C   0  0  0  0  0  0  0  0  0  0  0  0
   10.3420   -5.7697    0.0000 O   0  0  0  0  0  0  0  0  0  0  0  0
    9.6275   -4.5322    0.0000 C   0  0  0  0  0  0  0  0  0  0  0  0
   10.3420   -4.1197    0.0000 O   0  0  0  0  0  0  0  0  0  0  0  0
    8.9131   -4.1197    0.0000 C   0  0  0  0  0  0  0  0  0  0  0  0
    8.1986   -4.5322    0.0000 C   0  0  0  0  0  0  0  0  0  0  0  0
    8.1986   -7.0072    0.0000 O   0  0  0  0  0  0  0  0  0  0  0  0
    8.1986   -7.8322    0.0000 C   0  0  1  0  0  0  0  0  0  0  0  0
    8.9131   -8.2447    0.0000 C   0  0  1  0  0  0  0  0  0  0  0  0
    9.6275   -7.8322    0.0000 O   0  0  0  0  0  0  0  0  0  0  0  0
    8.9131   -9.0697    0.0000 C   0  0  1  0  0  0  0  0  0  0  0  0
    9.6275   -9.4822    0.0000 O   0  0  0  0  0  0  0  0  0  0  0  0
    8.1986   -9.4822    0.0000 C   0  0  2  0  0  0  0  0  0  0  0  0
    8.1986  -10.3072    0.0000 O   0  0  0  0  0  0  0  0  0  0  0  0
    7.4841   -9.0697    0.0000 C   0  0  2  0  0  0  0  0  0  0  0  0
    7.4841   -8.2447    0.0000 O   0  0  0  0  0  0  0  0  0  0  0  0
    6.7697   -9.4822    0.0000 C   0  0  0  0  0  0  0  0  0  0  0  0
    7.4841  -10.7197    0.0000 C   0  0  0  0  0  0  0  0  0  0  0  0
    7.4841  -11.5447    0.0000 C   0  0  0  0  0  0  0  0  0  0  0  0
    6.7697  -11.9572    0.0000 C   0  0  0  0  0  0  0  0  0  0  0  0
    6.7697  -12.7822    0.0000 O   0  0  0  0  0  0  0  0  0  0  0  0
    6.0552  -11.5447    0.0000 O   0  0  0  0  0  0  0  0  0  0  0  0
    6.7697  -10.3072    0.0000 O   0  0  0  0  0  0  0  0  0  0  0  0
  1  2  2  0  0  0  0
  2  3  1  0  0  0  0
  3  4  2  0  0  0  0
  3  5  1  0  0  0  0
  5  6  1  0  0  0  0
  6  7  1  0  0  0  0
  6  8  2  0  0  0  0
  8  9  1  0  0  0  0
  9 10  1  0  0  0  0
  9 11  2  0  0  0  0
 11 12  1  0  0  0  0
  5 12  2  0  0  0  0
 12 13  1  0  0  0  0
  1 13  1  0  0  0  0
  1 14  1  0  0  0  0
 14 15  1  0  0  0  0
 15 16  2  0  0  0  0
 16 17  1  0  0  0  0
 16 18  1  0  0  0  0
 18 19  1  0  0  0  0
 18 20  2  0  0  0  0
 20 21  1  0  0  0  0
 14 21  2  0  0  0  0
 23 22  1  1  0  0  0
 23 24  1  0  0  0  0
 24 25  1  1  0  0  0
 24 26  1  0  0  0  0
 26 27  1  1  0  0  0
 26 28  1  0  0  0  0
 28 29  1  6  0  0  0
 28 30  1  0  0  0  0
 30 31  1  0  0  0  0
 30 32  1  1  0  0  0
 23 31  1  0  0  0  0
  2 22  1  0  0  0  0
 29 33  1  0  0  0  0
 33 34  1  0  0  0  0
 34 35  1  0  0  0  0
 35 36  1  0  0  0  0
 35 37  2  0  0  0  0
 33 38  2  0  0  0  0
M  END
>  <cdx:fragmentId>
5

$$$$
