98613.cdx
  Mrv1902 05222410252D          

 46 47  0  0  0  0            999 V2000
    1.3157  -14.1391    0.0000 O   0  0  0  0  0  0  0  0  0  0  0  0
    4.5894  -15.2544    0.0000 O   0  0  0  0  0  0  0  0  0  0  0  0
    2.0174  -15.2390    0.0000 O   0  0  0  0  0  0  0  0  0  0  0  0
    3.2990  -15.9892    0.0000 O   0  0  0  0  0  0  0  0  0  0  0  0
    2.0263  -13.7541    0.0000 C   0  0  0  0  0  0  0  0  0  0  0  0
    3.3123  -13.7617    0.0000 O   0  0  0  0  0  0  0  0  0  0  0  0
    2.6670  -14.1292    0.0000 C   0  0  1  0  0  0  0  0  0  0  0  0
    2.6626  -14.8716    0.0000 C   0  0  2  0  0  0  0  0  0  0  0  0
    3.3034  -15.2467    0.0000 C   0  0  1  0  0  0  0  0  0  0  0  0
    3.9486  -14.8793    0.0000 C   0  0  2  0  0  0  0  0  0  0  0  0
    3.9531  -14.1368    0.0000 C   0  0  2  0  0  0  0  0  0  0  0  0
    4.5983  -13.7694    0.0000 O   0  0  0  0  0  0  0  0  0  0  0  0
    7.1881  -10.8148    0.0000 C   0  0  0  0  0  0  0  0  0  0  0  0
    5.8888  -13.0346    0.0000 C   0  0  0  0  0  0  0  0  0  0  0  0
   10.4364   -5.2654    0.0000 O   0  0  0  0  0  0  0  0  0  0  0  0
    5.2480  -12.6595    0.0000 C   0  0  0  0  0  0  0  0  0  0  0  0
    4.6027  -13.0269    0.0000 C   0  0  0  0  0  0  0  0  0  0  0  0
    3.9619  -12.6519    0.0000 O   0  0  0  0  0  0  0  0  0  0  0  0
    5.8976  -11.5496    0.0000 C   0  0  0  0  0  0  0  0  0  0  0  0
    5.2524  -11.9170    0.0000 C   0  0  0  0  0  0  0  0  0  0  0  0
    6.5473  -10.4397    0.0000 C   0  0  0  0  0  0  0  0  0  0  0  0
    5.9021  -10.8072    0.0000 C   0  0  0  0  0  0  0  0  0  0  0  0
    7.1969   -9.3299    0.0000 C   0  0  0  0  0  0  0  0  0  0  0  0
    6.5517   -9.6973    0.0000 C   0  0  0  0  0  0  0  0  0  0  0  0
    7.8466   -8.2200    0.0000 C   0  0  0  0  0  0  0  0  0  0  0  0
    7.2014   -8.5874    0.0000 C   0  0  0  0  0  0  0  0  0  0  0  0
    8.4963   -7.1101    0.0000 C   0  0  0  0  0  0  0  0  0  0  0  0
    7.8510   -7.4775    0.0000 C   0  0  0  0  0  0  0  0  0  0  0  0
    7.2102   -7.1024    0.0000 C   0  0  0  0  0  0  0  0  0  0  0  0
    9.1459   -6.0002    0.0000 C   0  0  0  0  0  0  0  0  0  0  0  0
    8.5007   -6.3676    0.0000 C   0  0  0  0  0  0  0  0  0  0  0  0
    9.1504   -5.2577    0.0000 C   0  0  0  0  0  0  0  0  0  0  0  0
    8.5096   -4.8826    0.0000 C   0  0  0  0  0  0  0  0  0  0  0  0
    9.7956   -4.8903    0.0000 C   0  0  0  0  0  0  0  0  0  0  0  0
    9.8000   -4.1478    0.0000 O   0  0  0  0  0  0  0  0  0  0  0  0
   10.5169   -3.7396    0.0000 C   0  0  2  0  0  0  0  0  0  0  0  0
   11.2264   -4.1606    0.0000 O   0  0  0  0  0  0  0  0  0  0  0  0
   11.9458   -3.7396    0.0000 C   0  0  1  0  0  0  0  0  0  0  0  0
   11.9458   -2.9146    0.0000 C   0  0  2  0  0  0  0  0  0  0  0  0
   11.2264   -2.4936    0.0000 C   0  0  1  0  0  0  0  0  0  0  0  0
   10.5169   -2.9146    0.0000 C   0  0  1  0  0  0  0  0  0  0  0  0
   12.6615   -4.1500    0.0000 C   0  0  0  0  0  0  0  0  0  0  0  0
   11.2239   -1.6686    0.0000 O   0  0  0  0  0  0  0  0  0  0  0  0
   12.6615   -2.5042    0.0000 O   0  0  0  0  0  0  0  0  0  0  0  0
    9.8000   -2.5064    0.0000 O   0  0  0  0  0  0  0  0  0  0  0  0
   13.3747   -3.7353    0.0000 O   0  0  0  0  0  0  0  0  0  0  0  0
  1  5  1  0  0  0  0
 10  2  1  6  0  0  0
  8  3  1  6  0  0  0
  9  4  1  1  0  0  0
  7  5  1  1  0  0  0
  6 11  1  0  0  0  0
  7  6  1  0  0  0  0
  8  7  1  0  0  0  0
  9  8  1  0  0  0  0
 10  9  1  0  0  0  0
 11 10  1  0  0  0  0
 11 12  1  1  0  0  0
 17 12  1  0  0  0  0
 21 13  1  0  0  0  0
 16 14  1  0  0  0  0
 34 15  2  0  0  0  0
 16 20  2  0  0  0  0
 17 16  1  0  0  0  0
 18 17  2  0  0  0  0
 19 22  2  0  0  0  0
 20 19  1  0  0  0  0
 21 24  2  0  0  0  0
 22 21  1  0  0  0  0
 23 26  2  0  0  0  0
 24 23  1  0  0  0  0
 25 28  2  0  0  0  0
 26 25  1  0  0  0  0
 27 31  2  0  0  0  0
 28 27  1  0  0  0  0
 29 28  1  0  0  0  0
 30 32  2  0  0  0  0
 31 30  1  0  0  0  0
 32 34  1  0  0  0  0
 33 32  1  0  0  0  0
 35 34  1  0  0  0  0
 36 35  1  1  0  0  0
 36 37  1  0  0  0  0
 37 38  1  0  0  0  0
 38 39  1  0  0  0  0
 39 40  1  0  0  0  0
 40 41  1  0  0  0  0
 41 36  1  0  0  0  0
 38 42  1  1  0  0  0
 40 43  1  1  0  0  0
 39 44  1  6  0  0  0
 41 45  1  6  0  0  0
 42 46  1  0  0  0  0
M  END
>  <cdx:fragmentId>
5

$$$$
