98612.cdx
  Mrv1902 05222410242D          

 24 26  0  0  0  0            999 V2000
    4.3912   -6.8200    0.0000 C   0  0  0  0  0  0  0  0  0  0  0  0
    4.3912   -7.6450    0.0000 C   0  0  0  0  0  0  0  0  0  0  0  0
    5.1056   -8.0575    0.0000 C   0  0  0  0  0  0  0  0  0  0  0  0
    5.8201   -7.6450    0.0000 C   0  0  0  0  0  0  0  0  0  0  0  0
    5.8201   -6.8200    0.0000 C   0  0  0  0  0  0  0  0  0  0  0  0
    5.1056   -6.4075    0.0000 C   0  0  0  0  0  0  0  0  0  0  0  0
    6.5346   -8.0575    0.0000 C   0  0  0  0  0  0  0  0  0  0  0  0
    7.2491   -7.6450    0.0000 C   0  0  0  0  0  0  0  0  0  0  0  0
    7.2491   -6.8200    0.0000 C   0  0  0  0  0  0  0  0  0  0  0  0
    6.5346   -6.4075    0.0000 C   0  0  0  0  0  0  0  0  0  0  0  0
    7.9635   -8.0575    0.0000 C   0  0  0  0  0  0  0  0  0  0  0  0
    8.6780   -7.6450    0.0000 C   0  0  0  0  0  0  0  0  0  0  0  0
    8.6780   -6.8200    0.0000 C   0  0  0  0  0  0  0  0  0  0  0  0
    7.9635   -6.4075    0.0000 C   0  0  0  0  0  0  0  0  0  0  0  0
    3.6767   -8.0575    0.0000 O   0  0  0  0  0  0  0  0  0  0  0  0
    6.5346   -5.5825    0.0000 O   0  0  0  0  0  0  0  0  0  0  0  0
    6.5346   -8.8825    0.0000 O   0  0  0  0  0  0  0  0  0  0  0  0
    7.9635   -5.5825    0.0000 O   0  0  0  0  0  0  0  0  0  0  0  0
    9.3925   -6.4075    0.0000 C   0  0  0  0  0  0  0  0  0  0  0  0
    9.3925   -8.0575    0.0000 O   0  0  0  0  0  0  0  0  0  0  0  0
    9.3925   -5.5825    0.0000 O   0  0  0  0  0  0  0  0  0  0  0  0
   10.1069   -5.1700    0.0000 C   0  0  0  0  0  0  0  0  0  0  0  0
   10.1069   -4.3450    0.0000 C   0  0  0  0  0  0  0  0  0  0  0  0
    2.9622   -7.6450    0.0000 C   0  0  0  0  0  0  0  0  0  0  0  0
  1  2  2  0  0  0  0
  2  3  1  0  0  0  0
  3  4  2  0  0  0  0
  4  5  1  0  0  0  0
  5  6  2  0  0  0  0
  6  1  1  0  0  0  0
  4  7  1  0  0  0  0
  7  8  1  0  0  0  0
  8  9  2  0  0  0  0
  9 10  1  0  0  0  0
 10  5  1  0  0  0  0
  8 11  1  0  0  0  0
 11 12  2  0  0  0  0
 12 13  1  0  0  0  0
 13 14  2  0  0  0  0
 14  9  1  0  0  0  0
  2 15  1  0  0  0  0
 10 16  2  0  0  0  0
  7 17  2  0  0  0  0
 14 18  1  0  0  0  0
 13 19  1  0  0  0  0
 12 20  1  0  0  0  0
 19 21  1  0  0  0  0
 21 22  1  0  0  0  0
 22 23  1  0  0  0  0
 15 24  1  0  0  0  0
M  END
>  <cdx:fragmentId>
5

$$$$
