98610.cdx
  Mrv1902 05222410262D          

 46 47  0  0  0  0            999 V2000
    1.0542  -13.2437    0.0000 O   0  0  0  0  0  0  0  0  0  0  0  0
    1.7686  -13.6562    0.0000 C   0  0  0  0  0  0  0  0  0  0  0  0
    3.0680  -11.4364    0.0000 O   0  0  0  0  0  0  0  0  0  0  0  0
    4.3495  -12.1866    0.0000 O   0  0  0  0  0  0  0  0  0  0  0  0
    1.7775  -12.1713    0.0000 O   0  0  0  0  0  0  0  0  0  0  0  0
    3.0547  -13.6639    0.0000 O   0  0  0  0  0  0  0  0  0  0  0  0
    2.4139  -13.2888    0.0000 C   0  0  1  0  0  0  0  0  0  0  0  0
    2.4183  -12.5463    0.0000 C   0  0  2  0  0  0  0  0  0  0  0  0
    3.0635  -12.1789    0.0000 C   0  0  1  0  0  0  0  0  0  0  0  0
    3.7043  -12.5540    0.0000 C   0  0  2  0  0  0  0  0  0  0  0  0
    3.6999  -13.2965    0.0000 C   0  0  2  0  0  0  0  0  0  0  0  0
    4.3407  -13.6716    0.0000 O   0  0  0  0  0  0  0  0  0  0  0  0
    7.6144  -14.7869    0.0000 O   0  0  0  0  0  0  0  0  0  0  0  0
    5.0424  -14.7715    0.0000 O   0  0  0  0  0  0  0  0  0  0  0  0
    6.3240  -15.5217    0.0000 O   0  0  0  0  0  0  0  0  0  0  0  0
    5.0513  -13.2866    0.0000 C   0  0  0  0  0  0  0  0  0  0  0  0
    6.3373  -13.2942    0.0000 O   0  0  0  0  0  0  0  0  0  0  0  0
    5.6920  -13.6617    0.0000 C   0  0  1  0  0  0  0  0  0  0  0  0
    5.6876  -14.4041    0.0000 C   0  0  2  0  0  0  0  0  0  0  0  0
    6.3284  -14.7792    0.0000 C   0  0  1  0  0  0  0  0  0  0  0  0
    6.9736  -14.4118    0.0000 C   0  0  2  0  0  0  0  0  0  0  0  0
    6.9781  -13.6693    0.0000 C   0  0  2  0  0  0  0  0  0  0  0  0
    7.6233  -13.3019    0.0000 O   0  0  0  0  0  0  0  0  0  0  0  0
   10.2131  -10.3473    0.0000 C   0  0  0  0  0  0  0  0  0  0  0  0
    8.9138  -12.5671    0.0000 C   0  0  0  0  0  0  0  0  0  0  0  0
   13.4614   -4.7979    0.0000 O   0  0  0  0  0  0  0  0  0  0  0  0
    8.2730  -12.1920    0.0000 C   0  0  0  0  0  0  0  0  0  0  0  0
    7.6277  -12.5594    0.0000 C   0  0  0  0  0  0  0  0  0  0  0  0
    6.9869  -12.1844    0.0000 O   0  0  0  0  0  0  0  0  0  0  0  0
    8.9226  -11.0821    0.0000 C   0  0  0  0  0  0  0  0  0  0  0  0
    8.2774  -11.4495    0.0000 C   0  0  0  0  0  0  0  0  0  0  0  0
    9.5723   -9.9722    0.0000 C   0  0  0  0  0  0  0  0  0  0  0  0
    8.9271  -10.3397    0.0000 C   0  0  0  0  0  0  0  0  0  0  0  0
   10.2219   -8.8624    0.0000 C   0  0  0  0  0  0  0  0  0  0  0  0
    9.5767   -9.2298    0.0000 C   0  0  0  0  0  0  0  0  0  0  0  0
   10.8716   -7.7525    0.0000 C   0  0  0  0  0  0  0  0  0  0  0  0
   10.2264   -8.1199    0.0000 C   0  0  0  0  0  0  0  0  0  0  0  0
   11.5213   -6.6426    0.0000 C   0  0  0  0  0  0  0  0  0  0  0  0
   10.8760   -7.0100    0.0000 C   0  0  0  0  0  0  0  0  0  0  0  0
   10.2352   -6.6349    0.0000 C   0  0  0  0  0  0  0  0  0  0  0  0
   12.1709   -5.5327    0.0000 C   0  0  0  0  0  0  0  0  0  0  0  0
   11.5257   -5.9001    0.0000 C   0  0  0  0  0  0  0  0  0  0  0  0
   12.1754   -4.7902    0.0000 C   0  0  0  0  0  0  0  0  0  0  0  0
   11.5346   -4.4151    0.0000 C   0  0  0  0  0  0  0  0  0  0  0  0
   12.8206   -4.4228    0.0000 C   0  0  0  0  0  0  0  0  0  0  0  0
   12.8250   -3.6803    0.0000 O   0  0  0  0  0  0  0  0  0  0  0  0
 12 16  1  0  0  0  0
  2  1  1  0  0  0  0
  7  2  1  6  0  0  0
  9  3  1  6  0  0  0
 10  4  1  1  0  0  0
  8  5  1  1  0  0  0
  6 11  1  0  0  0  0
  7  6  1  0  0  0  0
  8  7  1  0  0  0  0
  9  8  1  0  0  0  0
 10  9  1  0  0  0  0
 11 10  1  0  0  0  0
 11 12  1  6  0  0  0
 21 13  1  6  0  0  0
 19 14  1  6  0  0  0
 20 15  1  1  0  0  0
 18 16  1  1  0  0  0
 17 22  1  0  0  0  0
 18 17  1  0  0  0  0
 19 18  1  0  0  0  0
 20 19  1  0  0  0  0
 21 20  1  0  0  0  0
 22 21  1  0  0  0  0
 22 23  1  1  0  0  0
 28 23  1  0  0  0  0
 32 24  1  0  0  0  0
 27 25  1  0  0  0  0
 45 26  2  0  0  0  0
 27 31  2  0  0  0  0
 28 27  1  0  0  0  0
 29 28  2  0  0  0  0
 30 33  2  0  0  0  0
 31 30  1  0  0  0  0
 32 35  2  0  0  0  0
 33 32  1  0  0  0  0
 34 37  2  0  0  0  0
 35 34  1  0  0  0  0
 36 39  2  0  0  0  0
 37 36  1  0  0  0  0
 38 42  2  0  0  0  0
 39 38  1  0  0  0  0
 40 39  1  0  0  0  0
 41 43  2  0  0  0  0
 42 41  1  0  0  0  0
 43 45  1  0  0  0  0
 44 43  1  0  0  0  0
 46 45  1  0  0  0  0
M  END
>  <cdx:fragmentId>
5

$$$$
