98618.cdx
  Mrv1902 05222410222D          

 16 17  0  0  0  0            999 V2000
    5.2162   -7.4937    0.0000 C   0  0  0  0  0  0  0  0  0  0  0  0
    5.2162   -8.3187    0.0000 C   0  0  0  0  0  0  0  0  0  0  0  0
    5.9306   -8.7313    0.0000 C   0  0  0  0  0  0  0  0  0  0  0  0
    6.6451   -8.3187    0.0000 C   0  0  0  0  0  0  0  0  0  0  0  0
    6.6451   -7.4937    0.0000 C   0  0  0  0  0  0  0  0  0  0  0  0
    5.9306   -7.0812    0.0000 C   0  0  0  0  0  0  0  0  0  0  0  0
    7.3596   -8.7313    0.0000 C   0  0  0  0  0  0  0  0  0  0  0  0
    8.0741   -8.3187    0.0000 C   0  0  0  0  0  0  0  0  0  0  0  0
    8.0741   -7.4937    0.0000 C   0  0  0  0  0  0  0  0  0  0  0  0
    7.3596   -7.0812    0.0000 C   0  0  0  0  0  0  0  0  0  0  0  0
    4.5017   -7.0812    0.0000 O   0  0  0  0  0  0  0  0  0  0  0  0
    5.9306   -9.5563    0.0000 C   0  0  0  0  0  0  0  0  0  0  0  0
    6.6451   -6.6688    0.0000 C   0  0  0  0  0  0  0  0  0  0  0  0
    8.7885   -8.7313    0.0000 C   0  0  0  0  0  0  0  0  0  0  0  0
    9.5030   -8.3187    0.0000 C   0  0  0  0  0  0  0  0  0  0  0  0
    8.7885   -9.5563    0.0000 C   0  0  0  0  0  0  0  0  0  0  0  0
  1  2  1  0  0  0  0
  2  3  1  0  0  0  0
  3  4  2  0  0  0  0
  4  5  1  0  0  0  0
  5  6  1  0  0  0  0
  6  1  1  0  0  0  0
  4  7  1  0  0  0  0
  7  8  1  0  0  0  0
  8  9  1  0  0  0  0
  9 10  1  0  0  0  0
 10  5  1  0  0  0  0
  1 11  1  0  0  0  0
  3 12  1  0  0  0  0
  5 13  1  0  0  0  0
  8 14  1  0  0  0  0
 14 15  1  0  0  0  0
 14 16  2  0  0  0  0
M  END
>  <cdx:fragmentId>
5

$$$$
