98615.cdx
  Mrv1902 05222410232D          

 26 28  0  0  0  0            999 V2000
    4.4049   -7.4525    0.0000 C   0  0  0  0  0  0  0  0  0  0  0  0
    4.4049   -8.2775    0.0000 C   0  0  0  0  0  0  0  0  0  0  0  0
    5.1194   -8.6900    0.0000 C   0  0  0  0  0  0  0  0  0  0  0  0
    5.8339   -8.2775    0.0000 C   0  0  0  0  0  0  0  0  0  0  0  0
    5.8339   -7.4525    0.0000 C   0  0  0  0  0  0  0  0  0  0  0  0
    5.1194   -7.0400    0.0000 C   0  0  0  0  0  0  0  0  0  0  0  0
    6.5483   -8.6900    0.0000 C   0  0  0  0  0  0  0  0  0  0  0  0
    7.2628   -8.2775    0.0000 C   0  0  0  0  0  0  0  0  0  0  0  0
    7.2628   -7.4525    0.0000 C   0  0  0  0  0  0  0  0  0  0  0  0
    6.5483   -7.0400    0.0000 O   0  0  0  0  0  0  0  0  0  0  0  0
    7.9773   -8.6900    0.0000 C   0  0  0  0  0  0  0  0  0  0  0  0
    8.6918   -8.2775    0.0000 C   0  0  0  0  0  0  0  0  0  0  0  0
    8.6918   -7.4525    0.0000 C   0  0  0  0  0  0  0  0  0  0  0  0
    9.4062   -8.6900    0.0000 C   0  0  0  0  0  0  0  0  0  0  0  0
   10.1207   -8.2775    0.0000 C   0  0  0  0  0  0  0  0  0  0  0  0
   10.1207   -7.4525    0.0000 C   0  0  0  0  0  0  0  0  0  0  0  0
    9.4062   -7.0400    0.0000 C   0  0  0  0  0  0  0  0  0  0  0  0
    6.5483   -9.5150    0.0000 O   0  0  0  0  0  0  0  0  0  0  0  0
    9.4062   -9.5150    0.0000 O   0  0  0  0  0  0  0  0  0  0  0  0
    5.1194   -9.5150    0.0000 O   0  0  0  0  0  0  0  0  0  0  0  0
    3.6905   -7.0400    0.0000 O   0  0  0  0  0  0  0  0  0  0  0  0
    5.1194   -6.2150    0.0000 O   0  0  0  0  0  0  0  0  0  0  0  0
    4.4049   -5.8025    0.0000 C   0  0  0  0  0  0  0  0  0  0  0  0
   10.8352   -7.0400    0.0000 O   0  0  0  0  0  0  0  0  0  0  0  0
   11.5496   -7.4525    0.0000 C   0  0  0  0  0  0  0  0  0  0  0  0
    3.6905   -8.6900    0.0000 C   0  0  0  0  0  0  0  0  0  0  0  0
  1  2  2  0  0  0  0
  2  3  1  0  0  0  0
  3  4  2  0  0  0  0
  4  5  1  0  0  0  0
  5  6  2  0  0  0  0
  6  1  1  0  0  0  0
  4  7  1  0  0  0  0
  7  8  1  0  0  0  0
  8  9  1  0  0  0  0
  9 10  1  0  0  0  0
 10  5  1  0  0  0  0
  8 11  1  0  0  0  0
 11 12  1  0  0  0  0
 12 13  2  0  0  0  0
 12 14  1  0  0  0  0
 14 15  2  0  0  0  0
 15 16  1  0  0  0  0
 16 17  2  0  0  0  0
 17 13  1  0  0  0  0
  7 18  2  0  0  0  0
 14 19  1  0  0  0  0
  3 20  1  0  0  0  0
  1 21  1  0  0  0  0
  6 22  1  0  0  0  0
 22 23  1  0  0  0  0
 16 24  1  0  0  0  0
 24 25  1  0  0  0  0
  2 26  1  0  0  0  0
M  END
>  <cdx:fragmentId>
5

$$$$
