98629.cdx
  Mrv1902 05222410232D          

 34 37  0  0  0  0            999 V2000
    7.0724   -8.5663    0.0000 C   0  0  0  0  0  0  0  0  0  0  0  0
    7.0724   -9.3913    0.0000 C   0  0  0  0  0  0  0  0  0  0  0  0
    7.7869   -9.8038    0.0000 C   0  0  0  0  0  0  0  0  0  0  0  0
    8.5014   -9.3913    0.0000 C   0  0  0  0  0  0  0  0  0  0  0  0
    8.5014   -8.5663    0.0000 C   0  0  0  0  0  0  0  0  0  0  0  0
    7.7869   -8.1538    0.0000 C   0  0  0  0  0  0  0  0  0  0  0  0
    7.7869   -7.3287    0.0000 C   0  0  0  0  0  0  0  0  0  0  0  0
    7.7869  -10.6288    0.0000 O   0  0  0  0  0  0  0  0  0  0  0  0
    8.5014  -11.0412    0.0000 C   0  0  0  0  0  0  0  0  0  0  0  0
    6.3580   -8.1538    0.0000 O   0  0  0  0  0  0  0  0  0  0  0  0
    8.4543   -6.8438    0.0000 C   0  0  0  0  0  0  0  0  0  0  0  0
    8.1994   -6.0592    0.0000 O   0  0  0  0  0  0  0  0  0  0  0  0
    7.3744   -6.0592    0.0000 C   0  0  0  0  0  0  0  0  0  0  0  0
    7.1195   -6.8438    0.0000 C   0  0  0  0  0  0  0  0  0  0  0  0
    6.8895   -5.3918    0.0000 O   0  0  0  0  0  0  0  0  0  0  0  0
    9.2390   -7.0988    0.0000 C   0  0  0  0  0  0  0  0  0  0  0  0
    9.8521   -6.5467    0.0000 C   0  0  0  0  0  0  0  0  0  0  0  0
   10.6367   -6.8017    0.0000 C   0  0  0  0  0  0  0  0  0  0  0  0
   11.2498   -6.2496    0.0000 C   0  0  0  0  0  0  0  0  0  0  0  0
   11.0782   -5.4427    0.0000 C   0  0  0  0  0  0  0  0  0  0  0  0
   10.2936   -5.1877    0.0000 C   0  0  0  0  0  0  0  0  0  0  0  0
    9.6805   -5.7398    0.0000 C   0  0  0  0  0  0  0  0  0  0  0  0
   11.6913   -4.8906    0.0000 O   0  0  0  0  0  0  0  0  0  0  0  0
    5.6435   -8.5663    0.0000 C   0  0  2  0  0  0  0  0  0  0  0  0
    4.9290   -8.1538    0.0000 O   0  0  0  0  0  0  0  0  0  0  0  0
    4.2145   -8.5663    0.0000 C   0  0  1  0  0  0  0  0  0  0  0  0
    4.2145   -9.3913    0.0000 C   0  0  2  0  0  0  0  0  0  0  0  0
    4.9290   -9.8038    0.0000 C   0  0  1  0  0  0  0  0  0  0  0  0
    5.6435   -9.3913    0.0000 C   0  0  1  0  0  0  0  0  0  0  0  0
    3.5001   -8.1538    0.0000 C   0  0  0  0  0  0  0  0  0  0  0  0
    4.9290  -10.6288    0.0000 O   0  0  0  0  0  0  0  0  0  0  0  0
    3.5001   -9.8038    0.0000 O   0  0  0  0  0  0  0  0  0  0  0  0
    6.3580   -9.8038    0.0000 O   0  0  0  0  0  0  0  0  0  0  0  0
    2.7856   -8.5663    0.0000 O   0  0  0  0  0  0  0  0  0  0  0  0
  1  2  2  0  0  0  0
  2  3  1  0  0  0  0
  3  4  2  0  0  0  0
  4  5  1  0  0  0  0
  5  6  2  0  0  0  0
  6  1  1  0  0  0  0
  6  7  1  0  0  0  0
  3  8  1  0  0  0  0
  8  9  1  0  0  0  0
  1 10  1  0  0  0  0
  7 11  1  0  0  0  0
 11 12  1  0  0  0  0
 12 13  1  0  0  0  0
 13 14  1  0  0  0  0
 14  7  2  0  0  0  0
 13 15  2  0  0  0  0
 11 16  1  0  0  0  0
 16 17  1  0  0  0  0
 17 18  2  0  0  0  0
 18 19  1  0  0  0  0
 19 20  2  0  0  0  0
 20 21  1  0  0  0  0
 21 22  2  0  0  0  0
 22 17  1  0  0  0  0
 20 23  1  0  0  0  0
 24 10  1  1  0  0  0
 24 25  1  0  0  0  0
 25 26  1  0  0  0  0
 26 27  1  0  0  0  0
 27 28  1  0  0  0  0
 28 29  1  0  0  0  0
 29 24  1  0  0  0  0
 26 30  1  1  0  0  0
 28 31  1  1  0  0  0
 27 32  1  6  0  0  0
 29 33  1  6  0  0  0
 30 34  1  0  0  0  0
M  END
>  <cdx:fragmentId>
5

$$$$
