98622.cdx
  Mrv1902 05222410212D          

 66 74  0  0  0  0            999 V2000
   12.9712   -9.0613    0.0000 C   0  0  0  0  0  0  0  0  0  0  0  0
   12.9712   -9.8863    0.0000 C   0  0  1  0  0  0  0  0  0  0  0  0
   13.6856  -10.2988    0.0000 C   0  0  1  0  0  0  0  0  0  0  0  0
   14.4001   -9.8863    0.0000 C   0  0  1  0  0  0  0  0  0  0  0  0
   14.4001   -9.0613    0.0000 C   0  0  2  0  0  0  0  0  0  0  0  0
   13.6856   -8.6487    0.0000 C   0  0  0  0  0  0  0  0  0  0  0  0
   15.1146  -10.2988    0.0000 C   0  0  0  0  0  0  0  0  0  0  0  0
   15.8291   -9.8863    0.0000 C   0  0  0  0  0  0  0  0  0  0  0  0
   15.8291   -9.0613    0.0000 C   0  0  2  0  0  0  0  0  0  0  0  0
   15.1146   -8.6487    0.0000 C   0  0  2  0  0  0  0  0  0  0  0  0
   16.5435   -8.6487    0.0000 C   0  0  1  0  0  0  0  0  0  0  0  0
   16.5435   -7.8237    0.0000 C   0  0  2  0  0  0  0  0  0  0  0  0
   15.8291   -7.4112    0.0000 C   0  0  1  0  0  0  0  0  0  0  0  0
   15.1146   -7.8237    0.0000 C   0  0  0  0  0  0  0  0  0  0  0  0
   17.2580   -9.0613    0.0000 C   0  0  0  0  0  0  0  0  0  0  0  0
   17.9725   -8.6487    0.0000 C   0  0  0  0  0  0  0  0  0  0  0  0
   17.9725   -7.8237    0.0000 C   0  0  2  0  0  0  0  0  0  0  0  0
   17.2580   -7.4112    0.0000 C   0  0  1  0  0  0  0  0  0  0  0  0
   18.6869   -7.4112    0.0000 C   0  0  0  0  0  0  0  0  0  0  0  0
   18.6869   -6.5863    0.0000 C   0  0  0  0  0  0  0  0  0  0  0  0
   17.9725   -6.1737    0.0000 C   0  0  1  0  0  0  0  0  0  0  0  0
   17.2580   -6.5863    0.0000 C   0  0  0  0  0  0  0  0  0  0  0  0
   16.5435   -6.9988    0.0000 O   0  0  0  0  0  0  0  0  0  0  0  0
   17.9725   -6.9988    0.0000 C   0  0  0  0  0  0  0  0  0  0  0  0
   18.3771   -6.6079    0.0000 O   0  0  0  0  0  0  0  0  0  0  0  0
   17.5600   -5.4593    0.0000 C   0  0  0  0  0  0  0  0  0  0  0  0
   12.2567  -10.2988    0.0000 O   0  0  0  0  0  0  0  0  0  0  0  0
   13.2731  -11.0132    0.0000 C   0  0  0  0  0  0  0  0  0  0  0  0
   14.4001   -8.2363    0.0000 C   0  0  0  0  0  0  0  0  0  0  0  0
   15.8291   -8.2363    0.0000 C   0  0  0  0  0  0  0  0  0  0  0  0
   15.8291   -6.5863    0.0000 O   0  0  0  0  0  0  0  0  0  0  0  0
   18.3850   -5.4593    0.0000 C   0  0  0  0  0  0  0  0  0  0  0  0
   16.5435   -9.4738    0.0000 C   0  0  0  0  0  0  0  0  0  0  0  0
   14.0981  -11.0132    0.0000 C   0  0  0  0  0  0  0  0  0  0  0  0
   11.5422   -9.8863    0.0000 C   0  0  2  0  0  0  0  0  0  0  0  0
   11.5422   -9.0613    0.0000 O   0  0  0  0  0  0  0  0  0  0  0  0
   10.8278   -8.6487    0.0000 C   0  0  0  0  0  0  0  0  0  0  0  0
   10.1133   -9.0613    0.0000 C   0  0  2  0  0  0  0  0  0  0  0  0
   10.1133   -9.8863    0.0000 C   0  0  1  0  0  0  0  0  0  0  0  0
   10.8278  -10.2987    0.0000 C   0  0  1  0  0  0  0  0  0  0  0  0
    9.3988  -10.2988    0.0000 O   0  0  0  0  0  0  0  0  0  0  0  0
    9.3988   -8.6487    0.0000 O   0  0  0  0  0  0  0  0  0  0  0  0
   10.8278  -11.1237    0.0000 O   0  0  0  0  0  0  0  0  0  0  0  0
   10.1133  -11.5362    0.0000 C   0  0  2  0  0  0  0  0  0  0  0  0
    9.3988  -11.1237    0.0000 O   0  0  0  0  0  0  0  0  0  0  0  0
    8.6844  -11.5362    0.0000 C   0  0  2  0  0  0  0  0  0  0  0  0
    8.6844  -12.3612    0.0000 C   0  0  1  0  0  0  0  0  0  0  0  0
    9.3988  -12.7737    0.0000 C   0  0  2  0  0  0  0  0  0  0  0  0
   10.1133  -12.3612    0.0000 C   0  0  1  0  0  0  0  0  0  0  0  0
    7.9699  -12.7737    0.0000 O   0  0  0  0  0  0  0  0  0  0  0  0
    7.9699  -11.1237    0.0000 C   0  0  0  0  0  0  0  0  0  0  0  0
    9.3988  -13.5988    0.0000 O   0  0  0  0  0  0  0  0  0  0  0  0
   10.8278  -12.7737    0.0000 O   0  0  0  0  0  0  0  0  0  0  0  0
   17.9725   -4.7448    0.0000 O   0  0  0  0  0  0  0  0  0  0  0  0
   14.4001  -10.7112    0.0000 H   0  0  0  0  0  0  0  0  0  0  0  0
   15.1146   -9.4738    0.0000 H   0  0  0  0  0  0  0  0  0  0  0  0
   17.2580   -8.2363    0.0000 H   0  0  0  0  0  0  0  0  0  0  0  0
   10.8278  -13.5987    0.0000 C   0  0  2  0  0  0  0  0  0  0  0  0
   10.1133  -14.0112    0.0000 O   0  0  0  0  0  0  0  0  0  0  0  0
   10.1133  -14.8362    0.0000 C   0  0  0  0  0  0  0  0  0  0  0  0
   10.8278  -15.2487    0.0000 C   0  0  2  0  0  0  0  0  0  0  0  0
   11.5422  -14.8362    0.0000 C   0  0  1  0  0  0  0  0  0  0  0  0
   11.5422  -14.0112    0.0000 C   0  0  1  0  0  0  0  0  0  0  0  0
   12.2567  -13.5987    0.0000 O   0  0  0  0  0  0  0  0  0  0  0  0
   12.2567  -15.2487    0.0000 O   0  0  0  0  0  0  0  0  0  0  0  0
   10.8278  -16.0737    0.0000 O   0  0  0  0  0  0  0  0  0  0  0  0
  1  2  1  0  0  0  0
  2  3  1  0  0  0  0
  3  4  1  0  0  0  0
  4  5  1  0  0  0  0
  5  6  1  0  0  0  0
  6  1  1  0  0  0  0
  4  7  1  0  0  0  0
  7  8  1  0  0  0  0
  8  9  1  0  0  0  0
  9 10  1  0  0  0  0
 10  5  1  0  0  0  0
  9 11  1  0  0  0  0
 11 12  1  0  0  0  0
 12 13  1  0  0  0  0
 13 14  1  0  0  0  0
 14 10  1  0  0  0  0
 11 15  1  0  0  0  0
 15 16  1  0  0  0  0
 16 17  1  0  0  0  0
 17 18  1  0  0  0  0
 18 12  1  0  0  0  0
 17 19  1  0  0  0  0
 19 20  1  0  0  0  0
 20 21  1  0  0  0  0
 21 22  1  0  0  0  0
 22 18  1  0  0  0  0
 12 23  1  1  0  0  0
 17 24  1  1  0  0  0
 23 24  1  0  0  0  0
 24 25  2  0  0  0  0
 21 26  1  1  0  0  0
  2 27  1  1  0  0  0
  3 28  1  1  0  0  0
  5 29  1  1  0  0  0
  9 30  1  1  0  0  0
 13 31  1  1  0  0  0
 21 32  1  6  0  0  0
 11 33  1  6  0  0  0
  3 34  1  6  0  0  0
 35 27  1  1  0  0  0
 35 36  1  0  0  0  0
 36 37  1  0  0  0  0
 37 38  1  0  0  0  0
 38 39  1  0  0  0  0
 39 40  1  0  0  0  0
 40 35  1  0  0  0  0
 39 41  1  1  0  0  0
 38 42  1  6  0  0  0
 40 43  1  6  0  0  0
 44 43  1  1  0  0  0
 44 45  1  0  0  0  0
 45 46  1  0  0  0  0
 46 47  1  0  0  0  0
 47 48  1  0  0  0  0
 48 49  1  0  0  0  0
 49 44  1  0  0  0  0
 47 50  1  1  0  0  0
 46 51  1  6  0  0  0
 48 52  1  6  0  0  0
 49 53  1  6  0  0  0
 26 54  1  0  0  0  0
  4 55  1  6  0  0  0
 10 56  1  6  0  0  0
 18 57  1  1  0  0  0
 58 53  1  1  0  0  0
 58 59  1  0  0  0  0
 59 60  1  0  0  0  0
 60 61  1  0  0  0  0
 61 62  1  0  0  0  0
 62 63  1  0  0  0  0
 63 58  1  0  0  0  0
 63 64  1  6  0  0  0
 62 65  1  1  0  0  0
 61 66  1  6  0  0  0
M  END
>  <cdx:fragmentId>
357

$$$$
