98620.cdx
  Mrv1902 05222410212D          

 33 35  0  0  0  0            999 V2000
    6.5180   -6.7925    0.0000 C   0  0  2  0  0  0  0  0  0  0  0  0
    6.5180   -7.6175    0.0000 C   0  0  2  0  0  0  0  0  0  0  0  0
    7.2325   -8.0300    0.0000 C   0  0  1  0  0  0  0  0  0  0  0  0
    7.9470   -7.6175    0.0000 C   0  0  2  0  0  0  0  0  0  0  0  0
    7.9470   -6.7925    0.0000 C   0  0  1  0  0  0  0  0  0  0  0  0
    7.2325   -6.3800    0.0000 O   0  0  0  0  0  0  0  0  0  0  0  0
    5.8036   -6.3800    0.0000 C   0  0  0  0  0  0  0  0  0  0  0  0
    8.6614   -6.3800    0.0000 O   0  0  0  0  0  0  0  0  0  0  0  0
    7.2325   -8.8550    0.0000 O   0  0  0  0  0  0  0  0  0  0  0  0
    8.6614   -8.0300    0.0000 O   0  0  0  0  0  0  0  0  0  0  0  0
    5.8036   -8.0300    0.0000 O   0  0  0  0  0  0  0  0  0  0  0  0
    5.0891   -6.7925    0.0000 O   0  0  0  0  0  0  0  0  0  0  0  0
    9.3759   -6.7925    0.0000 C   0  0  0  0  0  0  0  0  0  0  0  0
   10.0904   -6.3800    0.0000 C   0  0  0  0  0  0  0  0  0  0  0  0
   10.8049   -6.7925    0.0000 C   0  0  0  0  0  0  0  0  0  0  0  0
   10.8049   -7.6175    0.0000 C   0  0  0  0  0  0  0  0  0  0  0  0
   11.5193   -8.0300    0.0000 C   0  0  0  0  0  0  0  0  0  0  0  0
   12.2338   -7.6175    0.0000 C   0  0  0  0  0  0  0  0  0  0  0  0
   12.2338   -6.7925    0.0000 C   0  0  0  0  0  0  0  0  0  0  0  0
   11.5193   -6.3800    0.0000 C   0  0  0  0  0  0  0  0  0  0  0  0
   12.9483   -8.0300    0.0000 O   0  0  0  0  0  0  0  0  0  0  0  0
   10.0904   -7.2050    0.0000 O   0  0  0  0  0  0  0  0  0  0  0  0
    4.3746   -6.3800    0.0000 C   0  0  0  0  0  0  0  0  0  0  0  0
    3.6601   -6.7925    0.0000 C   0  0  0  0  0  0  0  0  0  0  0  0
    4.3746   -5.5550    0.0000 O   0  0  0  0  0  0  0  0  0  0  0  0
    2.9457   -6.3800    0.0000 C   0  0  0  0  0  0  0  0  0  0  0  0
    2.2312   -6.7925    0.0000 C   0  0  0  0  0  0  0  0  0  0  0  0
    2.2312   -7.6175    0.0000 C   0  0  0  0  0  0  0  0  0  0  0  0
    2.9457   -8.0300    0.0000 C   0  0  0  0  0  0  0  0  0  0  0  0
    3.6601   -7.6175    0.0000 C   0  0  0  0  0  0  0  0  0  0  0  0
    1.5167   -8.0300    0.0000 O   0  0  0  0  0  0  0  0  0  0  0  0
    2.9457   -8.8550    0.0000 O   0  0  0  0  0  0  0  0  0  0  0  0
    2.2312   -9.2675    0.0000 C   0  0  0  0  0  0  0  0  0  0  0  0
  1  2  1  0  0  0  0
  2  3  1  0  0  0  0
  3  4  1  0  0  0  0
  4  5  1  0  0  0  0
  5  6  1  0  0  0  0
  6  1  1  0  0  0  0
  1  7  1  1  0  0  0
  5  8  1  1  0  0  0
  3  9  1  1  0  0  0
  4 10  1  6  0  0  0
  2 11  1  6  0  0  0
  7 12  1  0  0  0  0
  8 13  1  0  0  0  0
 13 14  1  0  0  0  0
 14 15  1  0  0  0  0
 15 16  1  0  0  0  0
 16 17  1  0  0  0  0
 17 18  1  0  0  0  0
 18 19  1  0  0  0  0
 19 20  1  0  0  0  0
 20 15  1  0  0  0  0
 18 21  2  0  0  0  0
 15 22  1  0  0  0  0
 12 23  1  0  0  0  0
 23 24  1  0  0  0  0
 23 25  2  0  0  0  0
 24 26  2  0  0  0  0
 26 27  1  0  0  0  0
 27 28  2  0  0  0  0
 28 29  1  0  0  0  0
 29 30  2  0  0  0  0
 30 24  1  0  0  0  0
 28 31  1  0  0  0  0
 29 32  1  0  0  0  0
 32 33  1  0  0  0  0
M  END
>  <cdx:fragmentId>
189

$$$$
