98626.cdx
  Mrv1902 05222410222D          

 42 46  0  0  0  0            999 V2000
    8.9141   -7.4747    0.0000 C   0  0  0  0  0  0  0  0  0  0  0  0
    8.9141   -8.2997    0.0000 C   0  0  0  0  0  0  0  0  0  0  0  0
    8.1997   -8.7122    0.0000 C   0  0  0  0  0  0  0  0  0  0  0  0
    8.1997   -9.5372    0.0000 O   0  0  0  0  0  0  0  0  0  0  0  0
    7.4852   -8.2997    0.0000 C   0  0  0  0  0  0  0  0  0  0  0  0
    6.7707   -8.7122    0.0000 C   0  0  0  0  0  0  0  0  0  0  0  0
    6.7707   -9.5372    0.0000 O   0  0  0  0  0  0  0  0  0  0  0  0
    6.0563   -8.2997    0.0000 C   0  0  0  0  0  0  0  0  0  0  0  0
    6.0563   -7.4747    0.0000 C   0  0  0  0  0  0  0  0  0  0  0  0
    5.3418   -7.0622    0.0000 O   0  0  0  0  0  0  0  0  0  0  0  0
    6.7707   -7.0622    0.0000 C   0  0  0  0  0  0  0  0  0  0  0  0
    7.4852   -7.4747    0.0000 C   0  0  0  0  0  0  0  0  0  0  0  0
    8.1997   -7.0622    0.0000 O   0  0  0  0  0  0  0  0  0  0  0  0
    9.6286   -7.0622    0.0000 C   0  0  0  0  0  0  0  0  0  0  0  0
    9.6286   -6.2372    0.0000 C   0  0  0  0  0  0  0  0  0  0  0  0
   10.3431   -5.8247    0.0000 C   0  0  0  0  0  0  0  0  0  0  0  0
   11.0575   -6.2372    0.0000 C   0  0  0  0  0  0  0  0  0  0  0  0
   11.7720   -5.8247    0.0000 O   0  0  0  0  0  0  0  0  0  0  0  0
   11.0575   -7.0622    0.0000 C   0  0  0  0  0  0  0  0  0  0  0  0
   10.3431   -7.4747    0.0000 C   0  0  0  0  0  0  0  0  0  0  0  0
    9.6286   -8.7122    0.0000 O   0  0  0  0  0  0  0  0  0  0  0  0
    9.6286   -9.5372    0.0000 C   0  0  0  0  0  0  0  0  0  0  0  0
   10.3431   -9.9497    0.0000 C   0  0  0  0  0  0  0  0  0  0  0  0
   11.0575   -9.5372    0.0000 O   0  0  0  0  0  0  0  0  0  0  0  0
   10.3431  -10.7747    0.0000 C   0  0  0  0  0  0  0  0  0  0  0  0
   11.0575  -11.1872    0.0000 O   0  0  0  0  0  0  0  0  0  0  0  0
    9.6286  -11.1872    0.0000 C   0  0  0  0  0  0  0  0  0  0  0  0
    9.6286  -12.0122    0.0000 O   0  0  0  0  0  0  0  0  0  0  0  0
    8.9141  -10.7747    0.0000 C   0  0  0  0  0  0  0  0  0  0  0  0
    8.9141   -9.9497    0.0000 O   0  0  0  0  0  0  0  0  0  0  0  0
    8.1997  -11.1872    0.0000 C   0  0  0  0  0  0  0  0  0  0  0  0
    4.5179   -7.0444    0.0000 C   0  0  0  0  0  0  0  0  0  0  0  0
    4.1033   -7.7576    0.0000 C   0  0  0  0  0  0  0  0  0  0  0  0
    4.5137   -8.4733    0.0000 O   0  0  0  0  0  0  0  0  0  0  0  0
    3.2783   -7.7551    0.0000 C   0  0  0  0  0  0  0  0  0  0  0  0
    2.8637   -8.4684    0.0000 O   0  0  0  0  0  0  0  0  0  0  0  0
    2.8679   -7.0394    0.0000 C   0  0  0  0  0  0  0  0  0  0  0  0
    2.0429   -7.0369    0.0000 O   0  0  0  0  0  0  0  0  0  0  0  0
    3.2826   -6.3262    0.0000 C   0  0  0  0  0  0  0  0  0  0  0  0
    4.1076   -6.3287    0.0000 O   0  0  0  0  0  0  0  0  0  0  0  0
    2.8722   -5.6105    0.0000 C   0  0  0  0  0  0  0  0  0  0  0  0
    2.0472   -5.6080    0.0000 O   0  0  0  0  0  0  0  0  0  0  0  0
  1  2  2  0  0  0  0
  2  3  1  0  0  0  0
  3  4  2  0  0  0  0
  3  5  1  0  0  0  0
  5  6  1  0  0  0  0
  6  7  1  0  0  0  0
  6  8  2  0  0  0  0
  8  9  1  0  0  0  0
  9 10  1  0  0  0  0
  9 11  2  0  0  0  0
 11 12  1  0  0  0  0
  5 12  2  0  0  0  0
 12 13  1  0  0  0  0
  1 13  1  0  0  0  0
  1 14  1  0  0  0  0
 14 15  1  0  0  0  0
 15 16  2  0  0  0  0
 16 17  1  0  0  0  0
 17 18  1  0  0  0  0
 17 19  2  0  0  0  0
 19 20  1  0  0  0  0
 14 20  2  0  0  0  0
 21 22  1  0  0  0  0
 23 24  1  0  0  0  0
 23 22  1  0  0  0  0
 25 26  1  0  0  0  0
 25 23  1  0  0  0  0
 27 28  1  0  0  0  0
 27 25  1  0  0  0  0
 29 30  1  0  0  0  0
 29 27  1  0  0  0  0
 31 29  1  0  0  0  0
 22 30  1  0  0  0  0
  2 21  1  0  0  0  0
 33 34  1  0  0  0  0
 33 32  1  0  0  0  0
 35 36  1  0  0  0  0
 35 33  1  0  0  0  0
 37 38  1  0  0  0  0
 37 35  1  0  0  0  0
 39 40  1  0  0  0  0
 39 37  1  0  0  0  0
 41 39  1  0  0  0  0
 32 40  1  0  0  0  0
 32 10  1  0  0  0  0
 41 42  1  0  0  0  0
M  END
>  <cdx:fragmentId>
5

$$$$
