986231.cdx
  Mrv1902 05222410252D          

 43 46  0  0  0  0            999 V2000
    5.0894   -7.8188    0.0000 C   0  0  1  0  0  0  0  0  0  0  0  0
   12.8318   -6.9127    0.0000 C   0  0  0  0  0  0  0  0  0  0  0  0
   11.4029   -6.9027    0.0000 O   0  0  0  0  0  0  0  0  0  0  0  0
   12.1145   -7.3202    0.0000 C   0  0  0  0  0  0  0  0  0  0  0  0
   12.8060  -11.0326    0.0000 C   0  0  0  0  0  0  0  0  0  0  0  0
   12.0916  -10.6201    0.0000 O   0  0  0  0  0  0  0  0  0  0  0  0
   11.3857   -9.3777    0.0000 C   0  0  0  0  0  0  0  0  0  0  0  0
   12.0973   -9.7951    0.0000 C   0  0  0  0  0  0  0  0  0  0  0  0
   12.8146   -9.3876    0.0000 C   0  0  0  0  0  0  0  0  0  0  0  0
   12.8203   -8.5626    0.0000 C   0  0  0  0  0  0  0  0  0  0  0  0
   12.1088   -8.1452    0.0000 C   0  0  0  0  0  0  0  0  0  0  0  0
   11.3914   -8.5527    0.0000 C   0  0  0  0  0  0  0  0  0  0  0  0
   10.6798   -8.1352    0.0000 O   0  0  0  0  0  0  0  0  0  0  0  0
    7.8106   -9.7653    0.0000 O   0  0  0  0  0  0  0  0  0  0  0  0
    9.2337  -10.6003    0.0000 O   0  0  0  0  0  0  0  0  0  0  0  0
   10.6684   -9.7852    0.0000 O   0  0  0  0  0  0  0  0  0  0  0  0
    9.9625   -8.5428    0.0000 C   0  0  1  0  0  0  0  0  0  0  0  0
    9.9568   -9.3677    0.0000 C   0  0  1  0  0  0  0  0  0  0  0  0
    9.2395   -9.7753    0.0000 C   0  0  2  0  0  0  0  0  0  0  0  0
    8.5279   -9.3578    0.0000 C   0  0  1  0  0  0  0  0  0  0  0  0
    8.5336   -8.5328    0.0000 C   0  0  2  0  0  0  0  0  0  0  0  0
    9.2509   -8.1253    0.0000 O   0  0  0  0  0  0  0  0  0  0  0  0
    7.8220   -8.1154    0.0000 C   0  0  0  0  0  0  0  0  0  0  0  0
    7.1047   -8.5229    0.0000 O   0  0  0  0  0  0  0  0  0  0  0  0
    4.3749   -8.2313    0.0000 O   0  0  0  0  0  0  0  0  0  0  0  0
    5.4600   -9.2415    0.0000 O   0  0  0  0  0  0  0  0  0  0  0  0
    6.3931   -8.1055    0.0000 C   0  0  1  0  0  0  0  0  0  0  0  0
    5.6371   -8.4358    0.0000 C   0  0  1  0  0  0  0  0  0  0  0  0
    5.5068   -7.1073    0.0000 C   0  0  0  0  0  0  0  0  0  0  0  0
    6.3126   -7.2844    0.0000 O   0  0  0  0  0  0  0  0  0  0  0  0
    4.3749   -7.4063    0.0000 C   0  0  0  0  0  0  0  0  0  0  0  0
    4.3749   -6.5813    0.0000 O   0  0  0  0  0  0  0  0  0  0  0  0
    3.6604   -6.1688    0.0000 C   0  0  0  0  0  0  0  0  0  0  0  0
    3.6604   -5.3438    0.0000 C   0  0  0  0  0  0  0  0  0  0  0  0
    2.9460   -6.5813    0.0000 O   0  0  0  0  0  0  0  0  0  0  0  0
    4.3749   -4.9313    0.0000 C   0  0  0  0  0  0  0  0  0  0  0  0
    4.3749   -4.1063    0.0000 C   0  0  0  0  0  0  0  0  0  0  0  0
    3.6604   -3.6938    0.0000 C   0  0  0  0  0  0  0  0  0  0  0  0
    2.9460   -4.1063    0.0000 C   0  0  0  0  0  0  0  0  0  0  0  0
    2.9460   -4.9313    0.0000 C   0  0  0  0  0  0  0  0  0  0  0  0
    3.6604   -2.8688    0.0000 O   0  0  0  0  0  0  0  0  0  0  0  0
    5.0894   -3.6938    0.0000 O   0  0  0  0  0  0  0  0  0  0  0  0
    2.2315   -3.6938    0.0000 O   0  0  0  0  0  0  0  0  0  0  0  0
 27 24  1  1  0  0  0
 21 23  1  1  0  0  0
 17 13  1  1  0  0  0
 11  4  1  0  0  0  0
  4  2  1  0  0  0  0
  4  3  2  0  0  0  0
  8  6  1  0  0  0  0
  6  5  1  0  0  0  0
 13 12  1  0  0  0  0
 12  7  2  0  0  0  0
  8  7  1  0  0  0  0
  9  8  2  0  0  0  0
 10  9  1  0  0  0  0
 11 10  2  0  0  0  0
 12 11  1  0  0  0  0
 20 14  1  6  0  0  0
 19 15  1  1  0  0  0
 18 16  1  6  0  0  0
 22 17  1  0  0  0  0
 18 17  1  0  0  0  0
 19 18  1  0  0  0  0
 20 19  1  0  0  0  0
 21 20  1  0  0  0  0
 22 21  1  0  0  0  0
 24 23  1  0  0  0  0
  1 25  1  6  0  0  0
 28 26  1  6  0  0  0
 30 27  1  0  0  0  0
 28 27  1  0  0  0  0
  1 28  1  0  0  0  0
 29  1  1  0  0  0  0
 30 29  1  0  0  0  0
  1 31  1  0  0  0  0
 31 32  1  0  0  0  0
 32 33  1  0  0  0  0
 33 34  1  0  0  0  0
 33 35  2  0  0  0  0
 34 36  2  0  0  0  0
 36 37  1  0  0  0  0
 37 38  2  0  0  0  0
 38 39  1  0  0  0  0
 39 40  2  0  0  0  0
 40 34  1  0  0  0  0
 38 41  1  0  0  0  0
 37 42  1  0  0  0  0
 39 43  1  0  0  0  0
M  END
>  <cdx:fragmentId>
34093

$$$$
