9862.cdx
  Mrv1902 05222410232D          

 43 48  0  0  0  0            999 V2000
    4.4599   -5.1287    0.0000 C   0  0  0  0  0  0  0  0  0  0  0  0
    4.4599   -5.9538    0.0000 C   0  0  0  0  0  0  0  0  0  0  0  0
    5.1744   -6.3662    0.0000 C   0  0  0  0  0  0  0  0  0  0  0  0
    5.8889   -5.9538    0.0000 C   0  0  0  0  0  0  0  0  0  0  0  0
    5.8889   -5.1287    0.0000 C   0  0  0  0  0  0  0  0  0  0  0  0
    5.1744   -4.7162    0.0000 C   0  0  0  0  0  0  0  0  0  0  0  0
    6.6033   -6.3662    0.0000 C   0  0  1  0  0  0  0  0  0  0  0  0
    7.3178   -5.9538    0.0000 C   0  0  2  0  0  0  0  0  0  0  0  0
    7.3178   -5.1287    0.0000 C   0  0  2  0  0  0  0  0  0  0  0  0
    6.6033   -4.7162    0.0000 O   0  0  0  0  0  0  0  0  0  0  0  0
    8.0323   -4.7162    0.0000 C   0  0  0  0  0  0  0  0  0  0  0  0
    8.0323   -6.3662    0.0000 O   0  0  0  0  0  0  0  0  0  0  0  0
    8.7468   -5.1287    0.0000 C   0  0  0  0  0  0  0  0  0  0  0  0
    9.4612   -4.7162    0.0000 C   0  0  0  0  0  0  0  0  0  0  0  0
    9.4612   -3.8912    0.0000 C   0  0  0  0  0  0  0  0  0  0  0  0
    8.7468   -3.4788    0.0000 C   0  0  0  0  0  0  0  0  0  0  0  0
    8.0323   -3.8912    0.0000 C   0  0  0  0  0  0  0  0  0  0  0  0
    3.7455   -4.7162    0.0000 O   0  0  0  0  0  0  0  0  0  0  0  0
    5.1744   -7.1913    0.0000 O   0  0  0  0  0  0  0  0  0  0  0  0
    8.7468   -2.6538    0.0000 O   0  0  0  0  0  0  0  0  0  0  0  0
   10.1757   -3.4787    0.0000 O   0  0  0  0  0  0  0  0  0  0  0  0
   10.1757   -5.1287    0.0000 O   0  0  0  0  0  0  0  0  0  0  0  0
    5.8471   -8.9650    0.0000 C   0  0  0  0  0  0  0  0  0  0  0  0
    6.5575   -9.3844    0.0000 C   0  0  0  0  0  0  0  0  0  0  0  0
    7.2760   -8.9788    0.0000 C   0  0  0  0  0  0  0  0  0  0  0  0
    7.2840   -8.1539    0.0000 C   0  0  0  0  0  0  0  0  0  0  0  0
    6.5735   -7.7345    0.0000 C   0  0  0  0  0  0  0  0  0  0  0  0
    5.8551   -8.1400    0.0000 C   0  0  0  0  0  0  0  0  0  0  0  0
    7.9864   -9.3983    0.0000 C   0  0  0  0  0  0  0  0  0  0  0  0
    8.7048   -8.9927    0.0000 C   0  0  1  0  0  0  0  0  0  0  0  0
    8.7128   -8.1677    0.0000 C   0  0  2  0  0  0  0  0  0  0  0  0
    8.0024   -7.7483    0.0000 O   0  0  0  0  0  0  0  0  0  0  0  0
    9.4153   -9.4121    0.0000 O   0  0  0  0  0  0  0  0  0  0  0  0
   10.1417   -8.1816    0.0000 C   0  0  0  0  0  0  0  0  0  0  0  0
    9.4313   -7.7622    0.0000 C   0  0  0  0  0  0  0  0  0  0  0  0
   10.8601   -7.7760    0.0000 C   0  0  0  0  0  0  0  0  0  0  0  0
   10.8681   -6.9511    0.0000 C   0  0  0  0  0  0  0  0  0  0  0  0
   10.1577   -6.5317    0.0000 C   0  0  0  0  0  0  0  0  0  0  0  0
    9.4393   -6.9372    0.0000 C   0  0  0  0  0  0  0  0  0  0  0  0
   11.5866   -6.5455    0.0000 O   0  0  0  0  0  0  0  0  0  0  0  0
   10.1657   -5.7067    0.0000 O   0  0  0  0  0  0  0  0  0  0  0  0
    6.5495  -10.2094    0.0000 O   0  0  0  0  0  0  0  0  0  0  0  0
    5.1446   -7.7206    0.0000 O   0  0  0  0  0  0  0  0  0  0  0  0
  1  2  2  0  0  0  0
  2  3  1  0  0  0  0
  3  4  2  0  0  0  0
  4  5  1  0  0  0  0
  5  6  2  0  0  0  0
  6  1  1  0  0  0  0
  4  7  1  0  0  0  0
  7  8  1  0  0  0  0
  8  9  1  0  0  0  0
  9 10  1  0  0  0  0
 10  5  1  0  0  0  0
  9 11  1  6  0  0  0
  8 12  1  6  0  0  0
 11 13  2  0  0  0  0
 13 14  1  0  0  0  0
 14 15  2  0  0  0  0
 15 16  1  0  0  0  0
 16 17  2  0  0  0  0
 17 11  1  0  0  0  0
  1 18  1  0  0  0  0
  3 19  1  0  0  0  0
 16 20  1  0  0  0  0
 15 21  1  0  0  0  0
 14 22  1  0  0  0  0
 23 24  2  0  0  0  0
 24 25  1  0  0  0  0
 25 26  2  0  0  0  0
 26 27  1  0  0  0  0
 27 28  2  0  0  0  0
 28 23  1  0  0  0  0
 25 29  1  0  0  0  0
 29 30  1  0  0  0  0
 30 31  1  0  0  0  0
 31 32  1  0  0  0  0
 32 26  1  0  0  0  0
 30 33  1  1  0  0  0
 34 35  2  0  0  0  0
 31 35  1  6  0  0  0
 34 36  1  0  0  0  0
 36 37  2  0  0  0  0
 37 38  1  0  0  0  0
 38 39  2  0  0  0  0
 39 35  1  0  0  0  0
 37 40  1  0  0  0  0
 38 41  1  0  0  0  0
 24 42  1  0  0  0  0
 28 43  1  0  0  0  0
  7 27  1  1  0  0  0
M  END
>  <cdx:fragmentId>
5

$$$$
