98625.cdx
  Mrv1902 05222410232D          

 42 46  0  0  0  0            999 V2000
    6.8384   -9.0354    0.0000 O   0  0  0  0  0  0  0  0  0  0  0  0
   11.8397   -5.3229    0.0000 O   0  0  0  0  0  0  0  0  0  0  0  0
    9.6963   -5.7354    0.0000 C   0  0  0  0  0  0  0  0  0  0  0  0
   10.4108   -5.3229    0.0000 C   0  0  0  0  0  0  0  0  0  0  0  0
   11.1252   -5.7354    0.0000 C   0  0  0  0  0  0  0  0  0  0  0  0
   11.1252   -6.5604    0.0000 C   0  0  0  0  0  0  0  0  0  0  0  0
   10.4108   -6.9729    0.0000 C   0  0  0  0  0  0  0  0  0  0  0  0
    9.6963   -6.5604    0.0000 C   0  0  0  0  0  0  0  0  0  0  0  0
   11.1252   -9.0354    0.0000 O   0  0  0  0  0  0  0  0  0  0  0  0
   11.1252  -10.6854    0.0000 O   0  0  0  0  0  0  0  0  0  0  0  0
    9.6963  -11.5104    0.0000 O   0  0  0  0  0  0  0  0  0  0  0  0
    8.2674  -10.6854    0.0000 C   0  0  0  0  0  0  0  0  0  0  0  0
    8.9818  -10.2729    0.0000 C   0  0  0  0  0  0  0  0  0  0  0  0
    9.6963  -10.6854    0.0000 C   0  0  0  0  0  0  0  0  0  0  0  0
   10.4108  -10.2729    0.0000 C   0  0  0  0  0  0  0  0  0  0  0  0
   10.4108   -9.4479    0.0000 C   0  0  0  0  0  0  0  0  0  0  0  0
    9.6963   -9.0354    0.0000 C   0  0  0  0  0  0  0  0  0  0  0  0
    8.9818   -9.4479    0.0000 O   0  0  0  0  0  0  0  0  0  0  0  0
    9.6963   -8.2104    0.0000 O   0  0  0  0  0  0  0  0  0  0  0  0
    5.4095   -8.2104    0.0000 O   0  0  0  0  0  0  0  0  0  0  0  0
    3.9805   -9.0354    0.0000 O   0  0  0  0  0  0  0  0  0  0  0  0
    2.5516   -8.2104    0.0000 O   0  0  0  0  0  0  0  0  0  0  0  0
    2.5516   -6.5604    0.0000 C   0  0  0  0  0  0  0  0  0  0  0  0
    3.2661   -6.9729    0.0000 C   0  0  0  0  0  0  0  0  0  0  0  0
    3.2661   -7.7979    0.0000 C   0  0  0  0  0  0  0  0  0  0  0  0
    3.9805   -8.2104    0.0000 C   0  0  0  0  0  0  0  0  0  0  0  0
    4.6950   -7.7979    0.0000 C   0  0  0  0  0  0  0  0  0  0  0  0
    4.6950   -6.9729    0.0000 C   0  0  0  0  0  0  0  0  0  0  0  0
    3.9805   -6.5604    0.0000 O   0  0  0  0  0  0  0  0  0  0  0  0
    5.4095   -6.5604    0.0000 O   0  0  0  0  0  0  0  0  0  0  0  0
    8.2674   -9.0354    0.0000 O   0  0  0  0  0  0  0  0  0  0  0  0
    8.2674   -6.5604    0.0000 O   0  0  0  0  0  0  0  0  0  0  0  0
    7.5529   -6.9729    0.0000 C   0  0  0  0  0  0  0  0  0  0  0  0
    6.8384   -6.5604    0.0000 C   0  0  0  0  0  0  0  0  0  0  0  0
    6.1239   -6.9729    0.0000 C   0  0  0  0  0  0  0  0  0  0  0  0
    6.1239   -7.7979    0.0000 C   0  0  0  0  0  0  0  0  0  0  0  0
    6.8384   -8.2104    0.0000 C   0  0  0  0  0  0  0  0  0  0  0  0
    7.5529   -7.7979    0.0000 C   0  0  0  0  0  0  0  0  0  0  0  0
    8.2674   -8.2104    0.0000 C   0  0  0  0  0  0  0  0  0  0  0  0
    8.9818   -7.7979    0.0000 C   0  0  0  0  0  0  0  0  0  0  0  0
    8.9818   -6.9729    0.0000 C   0  0  0  0  0  0  0  0  0  0  0  0
    8.2674  -11.5104    0.0000 O   0  0  0  0  0  0  0  0  0  0  0  0
 37  1  1  0  0  0  0
 41  8  1  0  0  0  0
  5  2  1  0  0  0  0
  8  3  2  0  0  0  0
  4  3  1  0  0  0  0
  5  4  2  0  0  0  0
  6  5  1  0  0  0  0
  7  6  2  0  0  0  0
  8  7  1  0  0  0  0
 40 19  1  0  0  0  0
 19 17  1  0  0  0  0
 16  9  1  0  0  0  0
 15 10  1  0  0  0  0
 14 11  1  0  0  0  0
 13 12  1  0  0  0  0
 18 13  1  0  0  0  0
 14 13  1  0  0  0  0
 15 14  1  0  0  0  0
 16 15  1  0  0  0  0
 17 16  1  0  0  0  0
 18 17  1  0  0  0  0
 35 30  1  0  0  0  0
 30 28  1  0  0  0  0
 27 20  1  0  0  0  0
 26 21  1  0  0  0  0
 25 22  1  0  0  0  0
 24 23  1  0  0  0  0
 29 24  1  0  0  0  0
 25 24  1  0  0  0  0
 26 25  1  0  0  0  0
 27 26  1  0  0  0  0
 28 27  1  0  0  0  0
 29 28  1  0  0  0  0
 39 31  2  0  0  0  0
 41 32  1  0  0  0  0
 33 32  1  0  0  0  0
 38 33  2  0  0  0  0
 34 33  1  0  0  0  0
 35 34  2  0  0  0  0
 36 35  1  0  0  0  0
 37 36  2  0  0  0  0
 38 37  1  0  0  0  0
 39 38  1  0  0  0  0
 40 39  1  0  0  0  0
 41 40  2  0  0  0  0
 12 42  1  0  0  0  0
M  END
>  <cdx:fragmentId>
177

$$$$
