98628.cdx
  Mrv1902 05222410232D          

 43 48  0  0  0  0            999 V2000
    4.4599   -5.1287    0.0000 C   0  0  0  0  0  0  0  0  0  0  0  0
    4.4599   -5.9538    0.0000 C   0  0  0  0  0  0  0  0  0  0  0  0
    5.1744   -6.3662    0.0000 C   0  0  0  0  0  0  0  0  0  0  0  0
    5.8889   -5.9538    0.0000 C   0  0  0  0  0  0  0  0  0  0  0  0
    5.8889   -5.1287    0.0000 C   0  0  0  0  0  0  0  0  0  0  0  0
    5.1744   -4.7162    0.0000 C   0  0  0  0  0  0  0  0  0  0  0  0
    6.6033   -6.3662    0.0000 C   0  0  1  0  0  0  0  0  0  0  0  0
    7.3178   -5.9538    0.0000 C   0  0  2  0  0  0  0  0  0  0  0  0
    7.3178   -5.1287    0.0000 C   0  0  2  0  0  0  0  0  0  0  0  0
    6.6033   -4.7162    0.0000 O   0  0  0  0  0  0  0  0  0  0  0  0
    8.0323   -4.7162    0.0000 C   0  0  0  0  0  0  0  0  0  0  0  0
    8.0323   -6.3662    0.0000 O   0  0  0  0  0  0  0  0  0  0  0  0
    8.7468   -5.1287    0.0000 C   0  0  0  0  0  0  0  0  0  0  0  0
    9.4612   -4.7162    0.0000 C   0  0  0  0  0  0  0  0  0  0  0  0
    9.4612   -3.8912    0.0000 C   0  0  0  0  0  0  0  0  0  0  0  0
    8.7468   -3.4788    0.0000 C   0  0  0  0  0  0  0  0  0  0  0  0
    8.0323   -3.8912    0.0000 C   0  0  0  0  0  0  0  0  0  0  0  0
    3.7455   -4.7162    0.0000 O   0  0  0  0  0  0  0  0  0  0  0  0
    5.1744   -7.1913    0.0000 O   0  0  0  0  0  0  0  0  0  0  0  0
    8.7468   -2.6538    0.0000 O   0  0  0  0  0  0  0  0  0  0  0  0
   10.1757   -3.4787    0.0000 O   0  0  0  0  0  0  0  0  0  0  0  0
   10.1757   -5.1287    0.0000 O   0  0  0  0  0  0  0  0  0  0  0  0
    6.6171   -8.0025    0.0000 C   0  0  0  0  0  0  0  0  0  0  0  0
    5.9026   -8.4150    0.0000 C   0  0  0  0  0  0  0  0  0  0  0  0
    5.9026   -9.2400    0.0000 C   0  0  0  0  0  0  0  0  0  0  0  0
    6.6171   -9.6525    0.0000 C   0  0  0  0  0  0  0  0  0  0  0  0
    7.3316   -9.2400    0.0000 C   0  0  0  0  0  0  0  0  0  0  0  0
    7.3316   -8.4150    0.0000 C   0  0  0  0  0  0  0  0  0  0  0  0
    5.1881   -9.6525    0.0000 C   0  0  0  0  0  0  0  0  0  0  0  0
    5.1881  -10.4775    0.0000 C   0  0  1  0  0  0  0  0  0  0  0  0
    5.9026  -10.8900    0.0000 C   0  0  2  0  0  0  0  0  0  0  0  0
    6.6171  -10.4775    0.0000 O   0  0  0  0  0  0  0  0  0  0  0  0
    4.4737  -10.8900    0.0000 O   0  0  0  0  0  0  0  0  0  0  0  0
    5.1881  -12.1275    0.0000 C   0  0  0  0  0  0  0  0  0  0  0  0
    5.9026  -11.7150    0.0000 C   0  0  0  0  0  0  0  0  0  0  0  0
    5.1881  -12.9525    0.0000 C   0  0  0  0  0  0  0  0  0  0  0  0
    5.9026  -13.3650    0.0000 C   0  0  0  0  0  0  0  0  0  0  0  0
    6.6171  -12.9525    0.0000 C   0  0  0  0  0  0  0  0  0  0  0  0
    6.6171  -12.1275    0.0000 C   0  0  0  0  0  0  0  0  0  0  0  0
    5.9026  -14.1900    0.0000 O   0  0  0  0  0  0  0  0  0  0  0  0
    7.3316  -13.3650    0.0000 O   0  0  0  0  0  0  0  0  0  0  0  0
    5.1881   -8.0025    0.0000 O   0  0  0  0  0  0  0  0  0  0  0  0
    8.0460   -8.0025    0.0000 O   0  0  0  0  0  0  0  0  0  0  0  0
  1  2  2  0  0  0  0
  2  3  1  0  0  0  0
  3  4  2  0  0  0  0
  4  5  1  0  0  0  0
  5  6  2  0  0  0  0
  6  1  1  0  0  0  0
  4  7  1  0  0  0  0
  7  8  1  0  0  0  0
  8  9  1  0  0  0  0
  9 10  1  0  0  0  0
 10  5  1  0  0  0  0
  9 11  1  6  0  0  0
  8 12  1  6  0  0  0
 11 13  2  0  0  0  0
 13 14  1  0  0  0  0
 14 15  2  0  0  0  0
 15 16  1  0  0  0  0
 16 17  2  0  0  0  0
 17 11  1  0  0  0  0
  1 18  1  0  0  0  0
  3 19  1  0  0  0  0
 16 20  1  0  0  0  0
 15 21  1  0  0  0  0
 14 22  1  0  0  0  0
  7 23  1  1  0  0  0
 23 24  2  0  0  0  0
 24 25  1  0  0  0  0
 25 26  2  0  0  0  0
 26 27  1  0  0  0  0
 27 28  2  0  0  0  0
 28 23  1  0  0  0  0
 25 29  1  0  0  0  0
 29 30  1  0  0  0  0
 30 31  1  0  0  0  0
 31 32  1  0  0  0  0
 32 26  1  0  0  0  0
 30 33  1  1  0  0  0
 34 35  2  0  0  0  0
 31 35  1  6  0  0  0
 34 36  1  0  0  0  0
 36 37  2  0  0  0  0
 37 38  1  0  0  0  0
 38 39  2  0  0  0  0
 39 35  1  0  0  0  0
 37 40  1  0  0  0  0
 38 41  1  0  0  0  0
 24 42  1  0  0  0  0
 28 43  1  0  0  0  0
M  END
>  <cdx:fragmentId>
5

$$$$
