98631.cdx
  Mrv1902 05222410232D          

 53 59  0  0  0  0            999 V2000
    5.4362   -4.3725    0.0000 C   0  0  0  0  0  0  0  0  0  0  0  0
    5.4362   -5.1975    0.0000 C   0  0  0  0  0  0  0  0  0  0  0  0
    6.1506   -5.6100    0.0000 C   0  0  0  0  0  0  0  0  0  0  0  0
    6.8651   -5.1975    0.0000 C   0  0  0  0  0  0  0  0  0  0  0  0
    6.8651   -4.3725    0.0000 C   0  0  0  0  0  0  0  0  0  0  0  0
    6.1506   -3.9600    0.0000 C   0  0  0  0  0  0  0  0  0  0  0  0
    7.5796   -5.6100    0.0000 C   0  0  1  0  0  0  0  0  0  0  0  0
    8.2941   -5.1975    0.0000 C   0  0  2  0  0  0  0  0  0  0  0  0
    8.2941   -4.3725    0.0000 C   0  0  2  0  0  0  0  0  0  0  0  0
    7.5796   -3.9600    0.0000 O   0  0  0  0  0  0  0  0  0  0  0  0
    9.0085   -5.6100    0.0000 O   0  0  0  0  0  0  0  0  0  0  0  0
    9.7230   -4.3725    0.0000 C   0  0  0  0  0  0  0  0  0  0  0  0
    9.0085   -3.9600    0.0000 C   0  0  0  0  0  0  0  0  0  0  0  0
   10.4375   -3.9600    0.0000 C   0  0  0  0  0  0  0  0  0  0  0  0
   10.4375   -3.1350    0.0000 C   0  0  0  0  0  0  0  0  0  0  0  0
    9.7230   -2.7225    0.0000 C   0  0  0  0  0  0  0  0  0  0  0  0
    9.0085   -3.1350    0.0000 C   0  0  0  0  0  0  0  0  0  0  0  0
    4.7217   -3.9600    0.0000 O   0  0  0  0  0  0  0  0  0  0  0  0
    6.1506   -6.4350    0.0000 O   0  0  0  0  0  0  0  0  0  0  0  0
    9.7230   -1.8975    0.0000 O   0  0  0  0  0  0  0  0  0  0  0  0
   11.1519   -2.7225    0.0000 O   0  0  0  0  0  0  0  0  0  0  0  0
   11.1519   -4.3725    0.0000 O   0  0  0  0  0  0  0  0  0  0  0  0
    8.2961   -8.4741    0.0000 C   0  0  0  0  0  0  0  0  0  0  0  0
    8.2961   -7.6491    0.0000 C   0  0  0  0  0  0  0  0  0  0  0  0
    7.5817   -7.2366    0.0000 C   0  0  0  0  0  0  0  0  0  0  0  0
    6.8672   -7.6491    0.0000 C   0  0  0  0  0  0  0  0  0  0  0  0
    6.8672   -8.4741    0.0000 C   0  0  0  0  0  0  0  0  0  0  0  0
    7.5817   -8.8866    0.0000 C   0  0  0  0  0  0  0  0  0  0  0  0
    9.0106   -7.2366    0.0000 O   0  0  0  0  0  0  0  0  0  0  0  0
    6.1527   -7.2366    0.0000 O   0  0  0  0  0  0  0  0  0  0  0  0
    6.1527   -8.8866    0.0000 C   0  0  1  0  0  0  0  0  0  0  0  0
    6.1527   -9.7116    0.0000 C   0  0  2  0  0  0  0  0  0  0  0  0
    6.8672  -10.1241    0.0000 C   0  0  2  0  0  0  0  0  0  0  0  0
    7.5817   -9.7116    0.0000 O   0  0  0  0  0  0  0  0  0  0  0  0
    6.8672  -10.9491    0.0000 C   0  0  0  0  0  0  0  0  0  0  0  0
    5.4382  -10.1241    0.0000 O   0  0  0  0  0  0  0  0  0  0  0  0
    6.1527  -11.3616    0.0000 C   0  0  0  0  0  0  0  0  0  0  0  0
    6.1527  -12.1866    0.0000 C   0  0  0  0  0  0  0  0  0  0  0  0
    6.8672  -12.5991    0.0000 C   0  0  0  0  0  0  0  0  0  0  0  0
    7.5817  -12.1866    0.0000 C   0  0  0  0  0  0  0  0  0  0  0  0
    7.5817  -11.3616    0.0000 C   0  0  0  0  0  0  0  0  0  0  0  0
    8.2961  -12.5991    0.0000 O   0  0  0  0  0  0  0  0  0  0  0  0
    6.8672  -13.4241    0.0000 O   0  0  0  0  0  0  0  0  0  0  0  0
    5.4382  -12.5991    0.0000 O   0  0  0  0  0  0  0  0  0  0  0  0
    4.7714   -8.0891    0.0000 C   0  0  0  0  0  0  0  0  0  0  0  0
    4.7714   -7.2641    0.0000 C   0  0  0  0  0  0  0  0  0  0  0  0
    4.0569   -6.8516    0.0000 C   0  0  0  0  0  0  0  0  0  0  0  0
    3.3425   -7.2641    0.0000 C   0  0  0  0  0  0  0  0  0  0  0  0
    3.3425   -8.0891    0.0000 C   0  0  0  0  0  0  0  0  0  0  0  0
    4.0569   -8.5016    0.0000 C   0  0  0  0  0  0  0  0  0  0  0  0
    5.4859   -6.8516    0.0000 O   0  0  0  0  0  0  0  0  0  0  0  0
    4.0569   -9.3266    0.0000 O   0  0  0  0  0  0  0  0  0  0  0  0
    2.6280   -6.8516    0.0000 O   0  0  0  0  0  0  0  0  0  0  0  0
  1  2  2  0  0  0  0
  2  3  1  0  0  0  0
  3  4  2  0  0  0  0
  4  5  1  0  0  0  0
  5  6  2  0  0  0  0
  6  1  1  0  0  0  0
  4  7  1  0  0  0  0
  7  8  1  0  0  0  0
  8  9  1  0  0  0  0
  9 10  1  0  0  0  0
 10  5  1  0  0  0  0
  8 11  1  6  0  0  0
 12 13  2  0  0  0  0
  9 13  1  6  0  0  0
 12 14  1  0  0  0  0
 14 15  2  0  0  0  0
 15 16  1  0  0  0  0
 16 17  2  0  0  0  0
 17 13  1  0  0  0  0
  1 18  1  0  0  0  0
  3 19  1  0  0  0  0
 16 20  1  0  0  0  0
 15 21  1  0  0  0  0
 14 22  1  0  0  0  0
 23 24  2  0  0  0  0
 24 25  1  0  0  0  0
 25 26  2  0  0  0  0
 26 27  1  0  0  0  0
 27 28  2  0  0  0  0
 28 23  1  0  0  0  0
 24 29  1  0  0  0  0
 26 30  1  0  0  0  0
 27 31  1  0  0  0  0
 31 32  1  0  0  0  0
 32 33  1  0  0  0  0
 33 34  1  0  0  0  0
 34 28  1  0  0  0  0
 33 35  1  6  0  0  0
 32 36  1  6  0  0  0
 35 37  2  0  0  0  0
 37 38  1  0  0  0  0
 38 39  2  0  0  0  0
 39 40  1  0  0  0  0
 40 41  2  0  0  0  0
 41 35  1  0  0  0  0
 40 42  1  0  0  0  0
 39 43  1  0  0  0  0
 38 44  1  0  0  0  0
 31 45  1  1  0  0  0
 45 46  2  0  0  0  0
 46 47  1  0  0  0  0
 47 48  2  0  0  0  0
 48 49  1  0  0  0  0
 49 50  2  0  0  0  0
 50 45  1  0  0  0  0
 46 51  1  0  0  0  0
 50 52  1  0  0  0  0
 48 53  1  0  0  0  0
  7 25  1  1  0  0  0
M  END
>  <cdx:fragmentId>
5

$$$$
