98639.cdx
  Mrv1902 05222410252D          

 38 43  0  0  0  0            999 V2000
    6.5395  -10.7442    0.0000 H   0  0  0  0  0  0  0  0  0  0  0  0
    5.7995  -11.9727    0.0000 H   0  0  0  0  0  0  0  0  0  0  0  0
    7.9633  -10.7530    0.0000 H   0  0  0  0  0  0  0  0  0  0  0  0
    8.2812  -10.5106    0.0000 H   0  0  0  0  0  0  0  0  0  0  0  0
    8.4425   -7.7589    0.0000 H   0  0  0  0  0  0  0  0  0  0  0  0
    8.6095   -6.3398    0.0000 H   0  0  0  0  0  0  0  0  0  0  0  0
    8.4482   -9.0914    0.0000 H   0  0  0  0  0  0  0  0  0  0  0  0
    7.1300   -8.3239    0.0000 H   0  0  0  0  0  0  0  0  0  0  0  0
    8.0434   -4.7809    0.0000 C   0  0  0  0  0  0  0  0  0  0  0  0
    5.8200   -9.4978    0.0000 C   0  0  0  0  0  0  0  0  0  0  0  0
    6.7210   -9.1144    0.0000 C   0  0  0  0  0  0  0  0  0  0  0  0
    6.5395   -9.9192    0.0000 C   0  0  2  0  0  0  0  0  0  0  0  0
    5.8200  -10.3228    0.0000 C   0  0  2  0  0  0  0  0  0  0  0  0
    5.1107   -9.9015    0.0000 C   0  0  0  0  0  0  0  0  0  0  0  0
    4.3911  -10.3051    0.0000 C   0  0  0  0  0  0  0  0  0  0  0  0
    4.3809  -11.1300    0.0000 C   0  0  1  0  0  0  0  0  0  0  0  0
    5.0902  -11.5513    0.0000 C   0  0  0  0  0  0  0  0  0  0  0  0
    5.8097  -11.1477    0.0000 C   0  0  2  0  0  0  0  0  0  0  0  0
    6.5190  -11.5691    0.0000 C   0  0  1  0  0  0  0  0  0  0  0  0
    7.2386  -11.1654    0.0000 C   0  0  0  0  0  0  0  0  0  0  0  0
    7.2488  -10.3405    0.0000 C   0  0  1  0  0  0  0  0  0  0  0  0
    7.8687   -9.7961    0.0000 C   0  0  2  0  0  0  0  0  0  0  0  0
    8.6880   -9.8925    0.0000 C   0  0  0  0  0  0  0  0  0  0  0  0
    9.1812   -9.2312    0.0000 C   0  0  0  0  0  0  0  0  0  0  0  0
    8.8550   -8.4734    0.0000 C   0  0  1  0  0  0  0  0  0  0  0  0
    9.3482   -7.8120    0.0000 C   0  0  2  0  0  0  0  0  0  0  0  0
    9.0220   -7.0542    0.0000 C   0  0  2  0  0  0  0  0  0  0  0  0
    9.5152   -6.3929    0.0000 C   0  0  0  0  0  0  0  0  0  0  0  0
    9.1890   -5.6351    0.0000 C   0  0  0  0  0  0  0  0  0  0  0  0
    8.3696   -5.5387    0.0000 C   0  0  1  0  0  0  0  0  0  0  0  0
    7.8765   -6.2000    0.0000 C   0  0  0  0  0  0  0  0  0  0  0  0
    8.2026   -6.9578    0.0000 N   0  0  0  0  0  0  0  0  0  0  0  0
    7.7095   -7.6192    0.0000 C   0  0  0  0  0  0  0  0  0  0  0  0
    8.0357   -8.3770    0.0000 C   0  0  1  0  0  0  0  0  0  0  0  0
    7.5425   -9.0383    0.0000 C   0  0  2  0  0  0  0  0  0  0  0  0
    3.6614  -11.5336    0.0000 O   0  0  0  0  0  0  0  0  0  0  0  0
    6.5088  -12.3940    0.0000 O   0  0  0  0  0  0  0  0  0  0  0  0
   10.1675   -7.9084    0.0000 C   0  0  0  0  0  0  0  0  0  0  0  0
 12  1  1  6  0  0  0
 18  2  1  6  0  0  0
 21  3  1  1  0  0  0
 22  4  1  6  0  0  0
 25  5  1  1  0  0  0
 27  6  1  6  0  0  0
 34  7  1  1  0  0  0
 35  8  1  6  0  0  0
 30  9  1  1  0  0  0
 13 10  1  1  0  0  0
 32 27  1  0  0  0  0
 34 25  1  0  0  0  0
 18 13  1  0  0  0  0
 21 12  1  0  0  0  0
 35 22  1  0  0  0  0
 35 11  1  0  0  0  0
 12 11  1  0  0  0  0
 13 12  1  0  0  0  0
 14 13  1  0  0  0  0
 15 14  1  0  0  0  0
 16 15  1  0  0  0  0
 17 16  1  0  0  0  0
 18 17  1  0  0  0  0
 19 18  1  0  0  0  0
 20 19  1  0  0  0  0
 21 20  1  0  0  0  0
 22 21  1  0  0  0  0
 23 22  1  0  0  0  0
 24 23  1  0  0  0  0
 25 24  1  0  0  0  0
 26 25  1  0  0  0  0
 27 26  1  0  0  0  0
 28 27  1  0  0  0  0
 29 28  1  0  0  0  0
 30 29  1  0  0  0  0
 31 30  1  0  0  0  0
 32 31  1  0  0  0  0
 33 32  1  0  0  0  0
 34 33  1  0  0  0  0
 35 34  1  0  0  0  0
 16 36  1  1  0  0  0
 19 37  1  1  0  0  0
 26 38  1  6  0  0  0
M  END
>  <cdx:fragmentId>
5

$$$$
