98635.cdx
  Mrv1902 05222410202D          

 25 27  0  0  0  0            999 V2000
    4.5424   -7.4250    0.0000 C   0  0  0  0  0  0  0  0  0  0  0  0
    4.5424   -8.2500    0.0000 C   0  0  0  0  0  0  0  0  0  0  0  0
    5.2569   -8.6625    0.0000 C   0  0  0  0  0  0  0  0  0  0  0  0
    5.9714   -8.2500    0.0000 C   0  0  0  0  0  0  0  0  0  0  0  0
    5.9714   -7.4250    0.0000 C   0  0  0  0  0  0  0  0  0  0  0  0
    5.2569   -7.0125    0.0000 C   0  0  0  0  0  0  0  0  0  0  0  0
    6.6858   -8.6625    0.0000 C   0  0  0  0  0  0  0  0  0  0  0  0
    7.4003   -8.2500    0.0000 C   0  0  0  0  0  0  0  0  0  0  0  0
    7.4003   -7.4250    0.0000 C   0  0  0  0  0  0  0  0  0  0  0  0
    6.6858   -7.0125    0.0000 O   0  0  0  0  0  0  0  0  0  0  0  0
    8.1148   -8.6625    0.0000 C   0  0  0  0  0  0  0  0  0  0  0  0
    8.8293   -8.2500    0.0000 C   0  0  0  0  0  0  0  0  0  0  0  0
    8.8293   -7.4250    0.0000 C   0  0  0  0  0  0  0  0  0  0  0  0
    9.5437   -8.6625    0.0000 C   0  0  0  0  0  0  0  0  0  0  0  0
   10.2582   -8.2500    0.0000 C   0  0  0  0  0  0  0  0  0  0  0  0
   10.2582   -7.4250    0.0000 C   0  0  0  0  0  0  0  0  0  0  0  0
    9.5437   -7.0125    0.0000 C   0  0  0  0  0  0  0  0  0  0  0  0
    6.6858   -9.4875    0.0000 O   0  0  0  0  0  0  0  0  0  0  0  0
    5.2569   -9.4875    0.0000 O   0  0  0  0  0  0  0  0  0  0  0  0
   10.9727   -8.6625    0.0000 O   0  0  0  0  0  0  0  0  0  0  0  0
   10.9727   -9.4875    0.0000 C   0  0  0  0  0  0  0  0  0  0  0  0
   10.9727   -7.0125    0.0000 O   0  0  0  0  0  0  0  0  0  0  0  0
   11.6871   -7.4250    0.0000 C   0  0  0  0  0  0  0  0  0  0  0  0
    3.8280   -8.6625    0.0000 C   0  0  0  0  0  0  0  0  0  0  0  0
    5.2569   -6.1875    0.0000 C   0  0  0  0  0  0  0  0  0  0  0  0
  1  2  2  0  0  0  0
  2  3  1  0  0  0  0
  3  4  2  0  0  0  0
  4  5  1  0  0  0  0
  5  6  2  0  0  0  0
  6  1  1  0  0  0  0
  4  7  1  0  0  0  0
  7  8  1  0  0  0  0
  8  9  1  0  0  0  0
  9 10  1  0  0  0  0
 10  5  1  0  0  0  0
  8 11  1  0  0  0  0
 11 12  1  0  0  0  0
 12 13  2  0  0  0  0
 12 14  1  0  0  0  0
 14 15  2  0  0  0  0
 15 16  1  0  0  0  0
 16 17  2  0  0  0  0
 17 13  1  0  0  0  0
  7 18  2  0  0  0  0
  3 19  1  0  0  0  0
 15 20  1  0  0  0  0
 20 21  1  0  0  0  0
 16 22  1  0  0  0  0
 22 23  1  0  0  0  0
  2 24  1  0  0  0  0
  6 25  1  0  0  0  0
M  END
>  <cdx:fragmentId>
5

$$$$
