98630.cdx
  Mrv1902 05222410222D          

 53 59  0  0  0  0            999 V2000
    3.9237   -5.2250    0.0000 C   0  0  0  0  0  0  0  0  0  0  0  0
    3.9237   -6.0500    0.0000 C   0  0  0  0  0  0  0  0  0  0  0  0
    4.6381   -6.4625    0.0000 C   0  0  0  0  0  0  0  0  0  0  0  0
    5.3526   -6.0500    0.0000 C   0  0  0  0  0  0  0  0  0  0  0  0
    5.3526   -5.2250    0.0000 C   0  0  0  0  0  0  0  0  0  0  0  0
    4.6381   -4.8125    0.0000 C   0  0  0  0  0  0  0  0  0  0  0  0
    6.0671   -6.4625    0.0000 C   0  0  1  0  0  0  0  0  0  0  0  0
    6.7816   -6.0500    0.0000 C   0  0  2  0  0  0  0  0  0  0  0  0
    6.7816   -5.2250    0.0000 C   0  0  2  0  0  0  0  0  0  0  0  0
    6.0671   -4.8125    0.0000 O   0  0  0  0  0  0  0  0  0  0  0  0
    7.4960   -6.4625    0.0000 O   0  0  0  0  0  0  0  0  0  0  0  0
    8.2105   -5.2250    0.0000 C   0  0  0  0  0  0  0  0  0  0  0  0
    7.4960   -4.8125    0.0000 C   0  0  0  0  0  0  0  0  0  0  0  0
    8.9250   -4.8125    0.0000 C   0  0  0  0  0  0  0  0  0  0  0  0
    8.9250   -3.9875    0.0000 C   0  0  0  0  0  0  0  0  0  0  0  0
    8.2105   -3.5750    0.0000 C   0  0  0  0  0  0  0  0  0  0  0  0
    7.4960   -3.9875    0.0000 C   0  0  0  0  0  0  0  0  0  0  0  0
    3.2092   -4.8125    0.0000 O   0  0  0  0  0  0  0  0  0  0  0  0
    4.6381   -7.2875    0.0000 O   0  0  0  0  0  0  0  0  0  0  0  0
    8.2105   -2.7500    0.0000 O   0  0  0  0  0  0  0  0  0  0  0  0
    9.6394   -3.5750    0.0000 O   0  0  0  0  0  0  0  0  0  0  0  0
    9.6394   -5.2250    0.0000 O   0  0  0  0  0  0  0  0  0  0  0  0
    6.0808   -8.2088    0.0000 C   0  0  0  0  0  0  0  0  0  0  0  0
    5.3664   -8.6212    0.0000 C   0  0  0  0  0  0  0  0  0  0  0  0
    5.3664   -9.4462    0.0000 C   0  0  0  0  0  0  0  0  0  0  0  0
    6.0808   -9.8588    0.0000 C   0  0  0  0  0  0  0  0  0  0  0  0
    6.7953   -9.4462    0.0000 C   0  0  0  0  0  0  0  0  0  0  0  0
    6.7953   -8.6212    0.0000 C   0  0  0  0  0  0  0  0  0  0  0  0
    4.6519   -8.2088    0.0000 O   0  0  0  0  0  0  0  0  0  0  0  0
    6.0808  -10.6837    0.0000 O   0  0  0  0  0  0  0  0  0  0  0  0
    7.5098   -9.8588    0.0000 C   0  0  1  0  0  0  0  0  0  0  0  0
    8.2243   -9.4462    0.0000 C   0  0  2  0  0  0  0  0  0  0  0  0
    8.2243   -8.6212    0.0000 C   0  0  2  0  0  0  0  0  0  0  0  0
    7.5098   -8.2088    0.0000 O   0  0  0  0  0  0  0  0  0  0  0  0
    8.9387   -8.2088    0.0000 C   0  0  0  0  0  0  0  0  0  0  0  0
    8.9387   -9.8588    0.0000 O   0  0  0  0  0  0  0  0  0  0  0  0
    9.6532   -8.6212    0.0000 C   0  0  0  0  0  0  0  0  0  0  0  0
   10.3677   -8.2088    0.0000 C   0  0  0  0  0  0  0  0  0  0  0  0
   10.3677   -7.3838    0.0000 C   0  0  0  0  0  0  0  0  0  0  0  0
    9.6532   -6.9712    0.0000 C   0  0  0  0  0  0  0  0  0  0  0  0
    8.9387   -7.3838    0.0000 C   0  0  0  0  0  0  0  0  0  0  0  0
    9.6532   -6.1463    0.0000 O   0  0  0  0  0  0  0  0  0  0  0  0
   11.0821   -6.9712    0.0000 O   0  0  0  0  0  0  0  0  0  0  0  0
   11.0821   -8.6212    0.0000 O   0  0  0  0  0  0  0  0  0  0  0  0
    7.5098  -11.4537    0.0000 C   0  0  0  0  0  0  0  0  0  0  0  0
    6.7953  -11.8662    0.0000 C   0  0  0  0  0  0  0  0  0  0  0  0
    6.7953  -12.6913    0.0000 C   0  0  0  0  0  0  0  0  0  0  0  0
    7.5098  -13.1037    0.0000 C   0  0  0  0  0  0  0  0  0  0  0  0
    8.2243  -12.6913    0.0000 C   0  0  0  0  0  0  0  0  0  0  0  0
    8.2243  -11.8662    0.0000 C   0  0  0  0  0  0  0  0  0  0  0  0
    6.0808  -11.4537    0.0000 O   0  0  0  0  0  0  0  0  0  0  0  0
    8.9387  -11.4537    0.0000 O   0  0  0  0  0  0  0  0  0  0  0  0
    7.5098  -13.9287    0.0000 O   0  0  0  0  0  0  0  0  0  0  0  0
  1  2  2  0  0  0  0
  2  3  1  0  0  0  0
  3  4  2  0  0  0  0
  4  5  1  0  0  0  0
  5  6  2  0  0  0  0
  6  1  1  0  0  0  0
  4  7  1  0  0  0  0
  7  8  1  0  0  0  0
  8  9  1  0  0  0  0
  9 10  1  0  0  0  0
 10  5  1  0  0  0  0
  8 11  1  6  0  0  0
 12 13  2  0  0  0  0
  9 13  1  6  0  0  0
 12 14  1  0  0  0  0
 14 15  2  0  0  0  0
 15 16  1  0  0  0  0
 16 17  2  0  0  0  0
 17 13  1  0  0  0  0
  1 18  1  0  0  0  0
  3 19  1  0  0  0  0
 16 20  1  0  0  0  0
 15 21  1  0  0  0  0
 14 22  1  0  0  0  0
  7 23  1  1  0  0  0
 23 24  2  0  0  0  0
 24 25  1  0  0  0  0
 25 26  2  0  0  0  0
 26 27  1  0  0  0  0
 27 28  2  0  0  0  0
 28 23  1  0  0  0  0
 24 29  1  0  0  0  0
 26 30  1  0  0  0  0
 27 31  1  0  0  0  0
 31 32  1  0  0  0  0
 32 33  1  0  0  0  0
 33 34  1  0  0  0  0
 34 28  1  0  0  0  0
 33 35  1  6  0  0  0
 32 36  1  6  0  0  0
 35 37  2  0  0  0  0
 37 38  1  0  0  0  0
 38 39  2  0  0  0  0
 39 40  1  0  0  0  0
 40 41  2  0  0  0  0
 41 35  1  0  0  0  0
 40 42  1  0  0  0  0
 39 43  1  0  0  0  0
 38 44  1  0  0  0  0
 31 45  1  1  0  0  0
 45 46  2  0  0  0  0
 46 47  1  0  0  0  0
 47 48  2  0  0  0  0
 48 49  1  0  0  0  0
 49 50  2  0  0  0  0
 50 45  1  0  0  0  0
 46 51  1  0  0  0  0
 50 52  1  0  0  0  0
 48 53  1  0  0  0  0
M  END
>  <cdx:fragmentId>
5

$$$$
