98645-￬ﾋﾜ￬ﾞﾑ.cdx
  Mrv1902 05222410192D          

 26 30  0  0  0  0            999 V2000
    4.7212   -7.9063    0.0000 C   0  0  0  0  0  0  0  0  0  0  0  0
    4.7212   -8.7313    0.0000 C   0  0  0  0  0  0  0  0  0  0  0  0
    5.4356   -9.1438    0.0000 C   0  0  2  0  0  0  0  0  0  0  0  0
    6.1501   -8.7313    0.0000 C   0  0  2  0  0  0  0  0  0  0  0  0
    6.1501   -7.9063    0.0000 C   0  0  1  0  0  0  0  0  0  0  0  0
    5.4356   -7.4937    0.0000 C   0  0  0  0  0  0  0  0  0  0  0  0
    6.8646   -9.1438    0.0000 C   0  0  2  0  0  0  0  0  0  0  0  0
    7.5791   -8.7313    0.0000 C   0  0  1  0  0  0  0  0  0  0  0  0
    7.5791   -7.9063    0.0000 C   0  0  2  0  0  0  0  0  0  0  0  0
    6.8646   -7.4937    0.0000 C   0  0  1  0  0  0  0  0  0  0  0  0
    8.2935   -7.4937    0.0000 C   0  0  0  0  0  0  0  0  0  0  0  0
    8.2935   -6.6688    0.0000 C   0  0  1  0  0  0  0  0  0  0  0  0
    7.5791   -6.2563    0.0000 C   0  0  0  0  0  0  0  0  0  0  0  0
    6.8646   -6.6688    0.0000 C   0  0  0  0  0  0  0  0  0  0  0  0
    8.2935   -8.3187    0.0000 C   0  0  0  0  0  0  0  0  0  0  0  0
    9.0080   -7.0812    0.0000 C   0  0  0  0  0  0  0  0  0  0  0  0
    9.8049   -6.8677    0.0000 C   0  0  0  0  0  0  0  0  0  0  0  0
    8.7060   -5.9543    0.0000 O   0  0  0  0  0  0  0  0  0  0  0  0
    5.6354   -9.8994    0.0000 C   0  0  0  0  0  0  0  0  0  0  0  0
    6.1711  -10.2844    0.0000 O   0  0  0  0  0  0  0  0  0  0  0  0
    6.9470   -9.7698    0.0000 O   0  0  0  0  0  0  0  0  0  0  0  0
    6.1501   -7.0812    0.0000 C   0  0  0  0  0  0  0  0  0  0  0  0
    5.0231   -9.8582    0.0000 C   0  0  0  0  0  0  0  0  0  0  0  0
    6.1501   -9.5563    0.0000 H   0  0  0  0  0  0  0  0  0  0  0  0
    8.2935   -9.1438    0.0000 O   0  0  0  0  0  0  0  0  0  0  0  0
    6.8646   -8.3187    0.0000 H   0  0  0  0  0  0  0  0  0  0  0  0
  1  2  1  0  0  0  0
  2  3  1  0  0  0  0
  3  4  1  0  0  0  0
  4  5  1  0  0  0  0
  5  6  1  0  0  0  0
  6  1  1  0  0  0  0
  4  7  1  0  0  0  0
  7  8  1  0  0  0  0
  8  9  1  0  0  0  0
  9 10  1  0  0  0  0
 10  5  1  0  0  0  0
  9 11  1  6  0  0  0
 12 11  1  6  0  0  0
 12 13  1  0  0  0  0
 13 14  1  0  0  0  0
 14 10  1  0  0  0  0
  9 15  1  1  0  0  0
 12 16  1  1  0  0  0
 15 16  1  0  0  0  0
 16 17  2  0  0  0  0
 12 18  1  0  0  0  0
  3 19  1  6  0  0  0
 19 20  1  0  0  0  0
 20 21  1  0  0  0  0
  7 21  1  6  0  0  0
  5 22  1  6  0  0  0
  3 23  1  1  0  0  0
  4 24  1  1  0  0  0
  8 25  1  1  0  0  0
 10 26  1  1  0  0  0
M  END
>  <cdx:fragmentId>
5

$$$$
