98650.cdx
  Mrv1902 05222410192D          

 66 73  0  0  0  0            999 V2000
   11.5230   -6.7925    0.0000 C   0  0  0  0  0  0  0  0  0  0  0  0
   11.5230   -7.6175    0.0000 C   0  0  1  0  0  0  0  0  0  0  0  0
   12.2375   -8.0300    0.0000 C   0  0  1  0  0  0  0  0  0  0  0  0
   12.9519   -7.6175    0.0000 C   0  0  1  0  0  0  0  0  0  0  0  0
   12.9519   -6.7925    0.0000 C   0  0  2  0  0  0  0  0  0  0  0  0
   12.2375   -6.3800    0.0000 C   0  0  0  0  0  0  0  0  0  0  0  0
   13.6664   -8.0300    0.0000 C   0  0  0  0  0  0  0  0  0  0  0  0
   14.3808   -7.6175    0.0000 C   0  0  0  0  0  0  0  0  0  0  0  0
   14.3808   -6.7925    0.0000 C   0  0  2  0  0  0  0  0  0  0  0  0
   13.6664   -6.3800    0.0000 C   0  0  2  0  0  0  0  0  0  0  0  0
   15.0953   -6.3800    0.0000 C   0  0  1  0  0  0  0  0  0  0  0  0
   15.0953   -5.5550    0.0000 C   0  0  0  0  0  0  0  0  0  0  0  0
   14.3808   -5.1425    0.0000 C   0  0  0  0  0  0  0  0  0  0  0  0
   13.6664   -5.5550    0.0000 C   0  0  0  0  0  0  0  0  0  0  0  0
   15.8097   -6.7925    0.0000 C   0  0  0  0  0  0  0  0  0  0  0  0
   16.5242   -6.3800    0.0000 C   0  0  0  0  0  0  0  0  0  0  0  0
   16.5242   -5.5550    0.0000 C   0  0  2  0  0  0  0  0  0  0  0  0
   15.8097   -5.1425    0.0000 C   0  0  1  0  0  0  0  0  0  0  0  0
   17.2389   -5.1425    0.0000 C   0  0  0  0  0  0  0  0  0  0  0  0
   17.2389   -4.3175    0.0000 C   0  0  0  0  0  0  0  0  0  0  0  0
   16.5242   -3.9050    0.0000 C   0  0  0  0  0  0  0  0  0  0  0  0
   15.8097   -4.3175    0.0000 C   0  0  0  0  0  0  0  0  0  0  0  0
   16.1117   -3.1905    0.0000 C   0  0  0  0  0  0  0  0  0  0  0  0
   16.9367   -3.1905    0.0000 C   0  0  0  0  0  0  0  0  0  0  0  0
   15.8097   -5.9675    0.0000 H   0  0  0  0  0  0  0  0  0  0  0  0
   15.0953   -7.2050    0.0000 C   0  0  0  0  0  0  0  0  0  0  0  0
   14.3808   -5.9675    0.0000 C   0  0  0  0  0  0  0  0  0  0  0  0
   13.6664   -7.2050    0.0000 H   0  0  0  0  0  0  0  0  0  0  0  0
   12.9519   -5.9675    0.0000 C   0  0  0  0  0  0  0  0  0  0  0  0
   12.9519   -8.4425    0.0000 H   0  0  0  0  0  0  0  0  0  0  0  0
   11.8250   -8.7444    0.0000 C   0  0  0  0  0  0  0  0  0  0  0  0
   12.6500   -8.7444    0.0000 C   0  0  0  0  0  0  0  0  0  0  0  0
   10.8086   -8.0300    0.0000 O   0  0  0  0  0  0  0  0  0  0  0  0
   17.2389   -5.9675    0.0000 C   0  0  0  0  0  0  0  0  0  0  0  0
   17.9534   -5.5550    0.0000 O   0  0  0  0  0  0  0  0  0  0  0  0
   17.2389   -6.7925    0.0000 O   0  0  0  0  0  0  0  0  0  0  0  0
   10.0941   -7.6175    0.0000 C   0  0  2  0  0  0  0  0  0  0  0  0
   10.0941   -6.7925    0.0000 O   0  0  0  0  0  0  0  0  0  0  0  0
    9.3797   -6.3800    0.0000 C   0  0  0  0  0  0  0  0  0  0  0  0
    8.6652   -6.7925    0.0000 C   0  0  1  0  0  0  0  0  0  0  0  0
    8.6652   -7.6175    0.0000 C   0  0  1  0  0  0  0  0  0  0  0  0
    9.3797   -8.0300    0.0000 C   0  0  1  0  0  0  0  0  0  0  0  0
    9.3797   -8.8550    0.0000 O   0  0  0  0  0  0  0  0  0  0  0  0
    7.9508   -8.0300    0.0000 O   0  0  0  0  0  0  0  0  0  0  0  0
    7.9508   -6.3800    0.0000 O   0  0  0  0  0  0  0  0  0  0  0  0
    8.6652   -9.2675    0.0000 C   0  0  2  0  0  0  0  0  0  0  0  0
    7.9508   -8.8550    0.0000 O   0  0  0  0  0  0  0  0  0  0  0  0
    7.2363   -9.2675    0.0000 C   0  0  2  0  0  0  0  0  0  0  0  0
    7.2363  -10.0925    0.0000 C   0  0  1  0  0  0  0  0  0  0  0  0
    7.9508  -10.5050    0.0000 C   0  0  2  0  0  0  0  0  0  0  0  0
    8.6652  -10.0925    0.0000 C   0  0  1  0  0  0  0  0  0  0  0  0
    6.5218  -10.5050    0.0000 O   0  0  0  0  0  0  0  0  0  0  0  0
    7.9508  -11.3300    0.0000 O   0  0  0  0  0  0  0  0  0  0  0  0
    9.3797  -10.5050    0.0000 O   0  0  0  0  0  0  0  0  0  0  0  0
    6.5218   -8.8550    0.0000 C   0  0  0  0  0  0  0  0  0  0  0  0
    7.2363  -11.7425    0.0000 C   0  0  2  0  0  0  0  0  0  0  0  0
    6.5218  -11.3300    0.0000 O   0  0  0  0  0  0  0  0  0  0  0  0
    5.8073  -11.7425    0.0000 C   0  0  1  0  0  0  0  0  0  0  0  0
    5.8073  -12.5675    0.0000 C   0  0  2  0  0  0  0  0  0  0  0  0
    6.5218  -12.9800    0.0000 C   0  0  1  0  0  0  0  0  0  0  0  0
    7.2363  -12.5675    0.0000 C   0  0  1  0  0  0  0  0  0  0  0  0
    5.0929  -11.3300    0.0000 C   0  0  0  0  0  0  0  0  0  0  0  0
    6.5218  -13.8050    0.0000 O   0  0  0  0  0  0  0  0  0  0  0  0
    5.0929  -12.9800    0.0000 O   0  0  0  0  0  0  0  0  0  0  0  0
    7.9508  -12.9800    0.0000 O   0  0  0  0  0  0  0  0  0  0  0  0
    4.3784  -11.7425    0.0000 O   0  0  0  0  0  0  0  0  0  0  0  0
  1  2  1  0  0  0  0
  2  3  1  0  0  0  0
  3  4  1  0  0  0  0
  4  5  1  0  0  0  0
  5  6  1  0  0  0  0
  6  1  1  0  0  0  0
  4  7  1  0  0  0  0
  7  8  1  0  0  0  0
  8  9  1  0  0  0  0
  9 10  1  0  0  0  0
 10  5  1  0  0  0  0
  9 11  1  0  0  0  0
 11 12  1  0  0  0  0
 12 13  2  0  0  0  0
 13 14  1  0  0  0  0
 14 10  1  0  0  0  0
 11 15  1  0  0  0  0
 15 16  1  0  0  0  0
 16 17  1  0  0  0  0
 17 18  1  0  0  0  0
 18 12  1  0  0  0  0
 17 19  1  0  0  0  0
 19 20  1  0  0  0  0
 20 21  1  0  0  0  0
 21 22  1  0  0  0  0
 22 18  1  0  0  0  0
 21 23  1  0  0  0  0
 21 24  1  0  0  0  0
 18 25  1  1  0  0  0
 11 26  1  6  0  0  0
  9 27  1  1  0  0  0
 10 28  1  6  0  0  0
  5 29  1  1  0  0  0
  4 30  1  6  0  0  0
  3 31  1  1  0  0  0
  3 32  1  6  0  0  0
  2 33  1  1  0  0  0
 17 34  1  1  0  0  0
 34 35  1  0  0  0  0
 34 36  2  0  0  0  0
 37 33  1  1  0  0  0
 37 38  1  0  0  0  0
 38 39  1  0  0  0  0
 39 40  1  0  0  0  0
 40 41  1  0  0  0  0
 41 42  1  0  0  0  0
 42 37  1  0  0  0  0
 42 43  1  6  0  0  0
 41 44  1  1  0  0  0
 40 45  1  1  0  0  0
 46 43  1  1  0  0  0
 46 47  1  0  0  0  0
 47 48  1  0  0  0  0
 48 49  1  0  0  0  0
 49 50  1  0  0  0  0
 50 51  1  0  0  0  0
 51 46  1  0  0  0  0
 49 52  1  1  0  0  0
 50 53  1  6  0  0  0
 51 54  1  6  0  0  0
 48 55  1  6  0  0  0
 56 53  1  1  0  0  0
 56 57  1  0  0  0  0
 57 58  1  0  0  0  0
 58 59  1  0  0  0  0
 59 60  1  0  0  0  0
 60 61  1  0  0  0  0
 61 56  1  0  0  0  0
 58 62  1  1  0  0  0
 60 63  1  1  0  0  0
 59 64  1  6  0  0  0
 61 65  1  6  0  0  0
 62 66  1  0  0  0  0
M  END
>  <cdx:fragmentId>
5

$$$$
