98654.cdx
  Mrv1902 05222410192D          

 88 97  0  0  0  0            999 V2000
   10.8160  -11.7997    0.0000 C   0  0  1  0  0  0  0  0  0  0  0  0
   10.8160  -10.9750    0.0000 C   0  0  0  0  0  0  0  0  0  0  0  0
   11.5302  -10.5626    0.0000 C   0  0  0  0  0  0  0  0  0  0  0  0
   11.5302  -12.2121    0.0000 C   0  0  2  0  0  0  0  0  0  0  0  0
   11.9426  -12.9264    0.0000 C   0  0  0  0  0  0  0  0  0  0  0  0
   11.1179  -12.9264    0.0000 C   0  0  0  0  0  0  0  0  0  0  0  0
   12.2445  -11.7997    0.0000 C   0  0  2  0  0  0  0  0  0  0  0  0
   12.2445  -12.6245    0.0000 H   0  0  0  0  0  0  0  0  0  0  0  0
   12.9587  -12.2121    0.0000 C   0  0  0  0  0  0  0  0  0  0  0  0
   13.6730  -11.7997    0.0000 C   0  0  0  0  0  0  0  0  0  0  0  0
   13.6730  -10.9750    0.0000 C   0  0  1  0  0  0  0  0  0  0  0  0
   13.6730  -10.1503    0.0000 C   0  0  0  0  0  0  0  0  0  0  0  0
   14.3872  -10.5626    0.0000 C   0  0  2  0  0  0  0  0  0  0  0  0
   14.3872  -11.3874    0.0000 C   0  0  0  0  0  0  0  0  0  0  0  0
   15.1015  -10.9750    0.0000 C   0  0  0  0  0  0  0  0  0  0  0  0
   15.8157  -10.5626    0.0000 C   0  0  0  0  0  0  0  0  0  0  0  0
   15.8157   -9.7379    0.0000 C   0  0  1  0  0  0  0  0  0  0  0  0
   16.5691  -10.0733    0.0000 C   0  0  0  0  0  0  0  0  0  0  0  0
   16.4286   -9.1860    0.0000 C   0  0  0  0  0  0  0  0  0  0  0  0
   16.0932   -8.4326    0.0000 C   0  0  0  0  0  0  0  0  0  0  0  0
   15.2729   -8.5188    0.0000 C   0  0  1  0  0  0  0  0  0  0  0  0
   14.7211   -7.9059    0.0000 C   0  0  0  0  0  0  0  0  0  0  0  0
   14.9759   -7.1215    0.0000 C   0  0  0  0  0  0  0  0  0  0  0  0
   13.9144   -8.0774    0.0000 C   0  0  0  0  0  0  0  0  0  0  0  0
   15.1015   -9.3255    0.0000 C   0  0  2  0  0  0  0  0  0  0  0  0
   15.1015  -10.1503    0.0000 H   0  0  0  0  0  0  0  0  0  0  0  0
   14.3872   -9.7379    0.0000 C   0  0  1  0  0  0  0  0  0  0  0  0
   14.3872   -8.9131    0.0000 H   0  0  0  0  0  0  0  0  0  0  0  0
   13.6730   -9.3255    0.0000 C   0  0  0  0  0  0  0  0  0  0  0  0
   12.9587   -9.7379    0.0000 C   0  0  0  0  0  0  0  0  0  0  0  0
   12.9587  -10.5626    0.0000 C   0  0  2  0  0  0  0  0  0  0  0  0
   12.2445  -10.9750    0.0000 C   0  0  1  0  0  0  0  0  0  0  0  0
   12.2445  -10.1503    0.0000 C   0  0  0  0  0  0  0  0  0  0  0  0
   16.5709  -10.8981    0.0000 O   0  0  0  0  0  0  0  0  0  0  0  0
    7.2578  -10.5402    0.0000 O   0  0  0  0  0  0  0  0  0  0  0  0
   11.5302  -13.6406    0.0000 O   0  0  0  0  0  0  0  0  0  0  0  0
   19.4192  -12.5505    0.0000 O   0  0  0  0  0  0  0  0  0  0  0  0
   19.3920  -13.3748    0.0000 C   0  0  1  0  0  0  0  0  0  0  0  0
   20.0923  -13.8104    0.0000 C   0  0  2  0  0  0  0  0  0  0  0  0
   20.8198  -13.4218    0.0000 O   0  0  0  0  0  0  0  0  0  0  0  0
   20.0652  -14.6347    0.0000 C   0  0  1  0  0  0  0  0  0  0  0  0
   20.7655  -15.0703    0.0000 O   0  0  0  0  0  0  0  0  0  0  0  0
   19.3378  -15.0234    0.0000 C   0  0  1  0  0  0  0  0  0  0  0  0
   18.6375  -14.5877    0.0000 C   0  0  2  0  0  0  0  0  0  0  0  0
   18.6646  -13.7635    0.0000 O   0  0  0  0  0  0  0  0  0  0  0  0
   17.9101  -14.9764    0.0000 C   0  0  0  0  0  0  0  0  0  0  0  0
   17.8830  -15.8007    0.0000 O   0  0  0  0  0  0  0  0  0  0  0  0
   12.9587  -11.3874    0.0000 H   0  0  0  0  0  0  0  0  0  0  0  0
    7.2383  -13.0143    0.0000 O   0  0  0  0  0  0  0  0  0  0  0  0
    6.5209  -13.4210    0.0000 C   0  0  0  0  0  0  0  0  0  0  0  0
    5.7969  -14.6525    0.0000 O   0  0  0  0  0  0  0  0  0  0  0  0
    6.5144  -14.2458    0.0000 C   0  0  1  0  0  0  0  0  0  0  0  0
    7.2189  -15.4885    0.0000 O   0  0  0  0  0  0  0  0  0  0  0  0
    7.2253  -14.6637    0.0000 C   0  0  2  0  0  0  0  0  0  0  0  0
    8.6538  -14.6750    0.0000 O   0  0  0  0  0  0  0  0  0  0  0  0
    7.9428  -14.2570    0.0000 C   0  0  1  0  0  0  0  0  0  0  0  0
    7.9493  -13.4323    0.0000 C   0  0  2  0  0  0  0  0  0  0  0  0
    9.3973  -10.9694    0.0000 O   0  0  0  0  0  0  0  0  0  0  0  0
    8.6863  -10.5514    0.0000 C   0  0  0  0  0  0  0  0  0  0  0  0
    7.9688  -10.9582    0.0000 C   0  0  1  0  0  0  0  0  0  0  0  0
    7.2448  -12.1896    0.0000 O   0  0  0  0  0  0  0  0  0  0  0  0
    7.9623  -11.7829    0.0000 C   0  0  2  0  0  0  0  0  0  0  0  0
    8.6668  -13.0256    0.0000 O   0  0  0  0  0  0  0  0  0  0  0  0
    8.6733  -12.2009    0.0000 C   0  0  1  0  0  0  0  0  0  0  0  0
    9.3908  -11.7941    0.0000 C   0  0  2  0  0  0  0  0  0  0  0  0
   10.1017  -12.2121    0.0000 O   0  0  0  0  0  0  0  0  0  0  0  0
   19.2057  -18.7027    0.0000 C   0  0  0  0  0  0  0  0  0  0  0  0
   19.2582  -17.2752    0.0000 O   0  0  0  0  0  0  0  0  0  0  0  0
   19.6440  -18.0041    0.0000 C   0  0  2  0  0  0  0  0  0  0  0  0
   20.8541  -18.7633    0.0000 O   0  0  0  0  0  0  0  0  0  0  0  0
   20.4682  -18.0344    0.0000 C   0  0  2  0  0  0  0  0  0  0  0  0
   21.7307  -17.3661    0.0000 O   0  0  0  0  0  0  0  0  0  0  0  0
   20.9066  -17.3358    0.0000 C   0  0  1  0  0  0  0  0  0  0  0  0
   20.9591  -15.9083    0.0000 O   0  0  0  0  0  0  0  0  0  0  0  0
   20.5207  -16.6069    0.0000 C   0  0  1  0  0  0  0  0  0  0  0  0
   19.6965  -16.5766    0.0000 C   0  0  2  0  0  0  0  0  0  0  0  0
   19.3107  -15.8477    0.0000 O   0  0  0  0  0  0  0  0  0  0  0  0
   18.7058  -12.1366    0.0000 C   0  0  0  0  0  0  0  0  0  0  0  0
   17.9941  -10.8980    0.0000 O   0  0  0  0  0  0  0  0  0  0  0  0
   18.7075  -11.3119    0.0000 C   0  0  1  0  0  0  0  0  0  0  0  0
   20.1360  -11.3149    0.0000 O   0  0  0  0  0  0  0  0  0  0  0  0
   19.4226  -10.9010    0.0000 C   0  0  1  0  0  0  0  0  0  0  0  0
   20.1395   -9.6654    0.0000 O   0  0  0  0  0  0  0  0  0  0  0  0
   19.4244  -10.0763    0.0000 C   0  0  2  0  0  0  0  0  0  0  0  0
   18.7127   -8.8377    0.0000 O   0  0  0  0  0  0  0  0  0  0  0  0
   18.7110   -9.6624    0.0000 C   0  0  1  0  0  0  0  0  0  0  0  0
   17.9959  -10.0733    0.0000 C   0  0  2  0  0  0  0  0  0  0  0  0
   17.2825   -9.6594    0.0000 O   0  0  0  0  0  0  0  0  0  0  0  0
 87 88  1  1  0  0  0
 65 66  1  1  0  0  0
 57 63  1  1  0  0  0
 57 49  1  0  0  0  0
 50 49  1  0  0  0  0
 52 50  1  0  0  0  0
 52 51  1  6  0  0  0
 54 52  1  0  0  0  0
 54 53  1  1  0  0  0
 56 54  1  0  0  0  0
 56 55  1  6  0  0  0
 57 56  1  0  0  0  0
 65 58  1  0  0  0  0
 59 58  1  0  0  0  0
 60 59  1  0  0  0  0
 60 35  1  1  0  0  0
 62 60  1  0  0  0  0
 62 61  1  1  0  0  0
 76 77  1  1  0  0  0
 76 68  1  0  0  0  0
 69 67  1  6  0  0  0
 69 68  1  0  0  0  0
 71 69  1  0  0  0  0
 71 70  1  1  0  0  0
 73 71  1  0  0  0  0
 73 72  1  6  0  0  0
 75 73  1  0  0  0  0
 75 74  1  6  0  0  0
 76 75  1  0  0  0  0
 38 39  1  0  0  0  0
 87 79  1  0  0  0  0
 78 37  1  0  0  0  0
 80 78  1  1  0  0  0
 80 79  1  0  0  0  0
 82 80  1  0  0  0  0
 82 81  1  6  0  0  0
 84 82  1  0  0  0  0
 84 83  1  1  0  0  0
 86 84  1  0  0  0  0
  1  2  1  0  0  0  0
  2  3  1  0  0  0  0
  1  4  1  0  0  0  0
  4  5  1  6  0  0  0
  4  6  1  1  0  0  0
  4  7  1  0  0  0  0
  7  8  1  6  0  0  0
  7  9  1  0  0  0  0
  9 10  1  0  0  0  0
 10 11  1  0  0  0  0
 11 12  1  1  0  0  0
 11 13  1  0  0  0  0
 13 14  1  6  0  0  0
 13 15  1  0  0  0  0
 15 16  1  0  0  0  0
 16 17  1  0  0  0  0
 17 18  1  1  0  0  0
 17 19  1  0  0  0  0
 19 20  1  0  0  0  0
 20 21  1  0  0  0  0
 21 22  1  6  0  0  0
 22 23  2  0  0  0  0
 22 24  1  0  0  0  0
 21 25  1  0  0  0  0
 25 26  1  6  0  0  0
 17 25  1  0  0  0  0
 25 27  1  0  0  0  0
 13 27  1  0  0  0  0
 27 28  1  1  0  0  0
 27 29  1  0  0  0  0
 29 30  1  0  0  0  0
 30 31  1  0  0  0  0
 11 31  1  0  0  0  0
 31 32  1  0  0  0  0
  3 32  1  0  0  0  0
  7 32  1  0  0  0  0
 32 33  1  1  0  0  0
 18 34  2  0  0  0  0
 18 88  1  0  0  0  0
 64 62  1  0  0  0  0
 64 63  1  6  0  0  0
 65 64  1  0  0  0  0
  1 66  1  1  0  0  0
  5 36  1  0  0  0  0
 86 85  1  6  0  0  0
 87 86  1  0  0  0  0
 39 40  1  6  0  0  0
 39 41  1  0  0  0  0
 41 42  1  1  0  0  0
 41 43  1  0  0  0  0
 43 77  1  6  0  0  0
 43 44  1  0  0  0  0
 44 45  1  0  0  0  0
 44 46  1  1  0  0  0
 46 47  1  0  0  0  0
 38 45  1  0  0  0  0
 38 37  1  1  0  0  0
 31 48  1  6  0  0  0
M  END
>  <cdx:groupId>
346

>  <cdx:fragmentId>
95

$$$$
