98651.cdx
  Mrv1902 05222410192D          

 65 72  0  0  0  0            999 V2000
   12.9805   -8.6350    0.0000 C   0  0  0  0  0  0  0  0  0  0  0  0
   12.9805   -9.4600    0.0000 C   0  0  1  0  0  0  0  0  0  0  0  0
   13.6950   -9.8725    0.0000 C   0  0  1  0  0  0  0  0  0  0  0  0
   14.4094   -9.4600    0.0000 C   0  0  1  0  0  0  0  0  0  0  0  0
   14.4094   -8.6350    0.0000 C   0  0  2  0  0  0  0  0  0  0  0  0
   13.6950   -8.2225    0.0000 C   0  0  0  0  0  0  0  0  0  0  0  0
   15.1239   -9.8725    0.0000 C   0  0  0  0  0  0  0  0  0  0  0  0
   15.8383   -9.4600    0.0000 C   0  0  0  0  0  0  0  0  0  0  0  0
   15.8383   -8.6350    0.0000 C   0  0  2  0  0  0  0  0  0  0  0  0
   15.1239   -8.2225    0.0000 C   0  0  2  0  0  0  0  0  0  0  0  0
   16.5528   -8.2225    0.0000 C   0  0  1  0  0  0  0  0  0  0  0  0
   16.5528   -7.3975    0.0000 C   0  0  0  0  0  0  0  0  0  0  0  0
   15.8383   -6.9850    0.0000 C   0  0  0  0  0  0  0  0  0  0  0  0
   15.1239   -7.3975    0.0000 C   0  0  0  0  0  0  0  0  0  0  0  0
   17.2672   -8.6350    0.0000 C   0  0  0  0  0  0  0  0  0  0  0  0
   17.9817   -8.2225    0.0000 C   0  0  0  0  0  0  0  0  0  0  0  0
   17.9817   -7.3975    0.0000 C   0  0  2  0  0  0  0  0  0  0  0  0
   17.2672   -6.9850    0.0000 C   0  0  1  0  0  0  0  0  0  0  0  0
   18.6964   -6.9850    0.0000 C   0  0  0  0  0  0  0  0  0  0  0  0
   18.6964   -6.1600    0.0000 C   0  0  0  0  0  0  0  0  0  0  0  0
   17.9817   -5.7475    0.0000 C   0  0  0  0  0  0  0  0  0  0  0  0
   17.2672   -6.1600    0.0000 C   0  0  0  0  0  0  0  0  0  0  0  0
   17.5692   -5.0330    0.0000 C   0  0  0  0  0  0  0  0  0  0  0  0
   18.3942   -5.0330    0.0000 C   0  0  0  0  0  0  0  0  0  0  0  0
   17.2672   -7.8100    0.0000 H   0  0  0  0  0  0  0  0  0  0  0  0
   16.5528   -9.0475    0.0000 C   0  0  0  0  0  0  0  0  0  0  0  0
   15.8383   -7.8100    0.0000 C   0  0  0  0  0  0  0  0  0  0  0  0
   15.1239   -9.0475    0.0000 H   0  0  0  0  0  0  0  0  0  0  0  0
   14.4094   -7.8100    0.0000 C   0  0  0  0  0  0  0  0  0  0  0  0
   14.4094  -10.2850    0.0000 H   0  0  0  0  0  0  0  0  0  0  0  0
   13.2825  -10.5869    0.0000 C   0  0  0  0  0  0  0  0  0  0  0  0
   14.1075  -10.5869    0.0000 C   0  0  0  0  0  0  0  0  0  0  0  0
   12.2661   -9.8725    0.0000 O   0  0  0  0  0  0  0  0  0  0  0  0
   18.6964   -7.8100    0.0000 C   0  0  0  0  0  0  0  0  0  0  0  0
   13.6950  -11.3014    0.0000 O   0  0  0  0  0  0  0  0  0  0  0  0
   19.4109   -7.3975    0.0000 O   0  0  0  0  0  0  0  0  0  0  0  0
   18.6964   -8.6350    0.0000 O   0  0  0  0  0  0  0  0  0  0  0  0
   11.5516   -9.4600    0.0000 C   0  0  2  0  0  0  0  0  0  0  0  0
   11.5516   -8.6350    0.0000 O   0  0  0  0  0  0  0  0  0  0  0  0
   10.8372   -8.2225    0.0000 C   0  0  0  0  0  0  0  0  0  0  0  0
   10.1227   -8.6350    0.0000 C   0  0  1  0  0  0  0  0  0  0  0  0
   10.1227   -9.4600    0.0000 C   0  0  1  0  0  0  0  0  0  0  0  0
   10.8372   -9.8725    0.0000 C   0  0  1  0  0  0  0  0  0  0  0  0
   10.8372  -10.6975    0.0000 O   0  0  0  0  0  0  0  0  0  0  0  0
    9.4083   -9.8725    0.0000 O   0  0  0  0  0  0  0  0  0  0  0  0
    9.4083   -8.2225    0.0000 O   0  0  0  0  0  0  0  0  0  0  0  0
   10.1227  -11.1100    0.0000 C   0  0  2  0  0  0  0  0  0  0  0  0
    9.4083  -10.6975    0.0000 O   0  0  0  0  0  0  0  0  0  0  0  0
    8.6938  -11.1100    0.0000 C   0  0  2  0  0  0  0  0  0  0  0  0
    8.6938  -11.9350    0.0000 C   0  0  1  0  0  0  0  0  0  0  0  0
    9.4083  -12.3475    0.0000 C   0  0  2  0  0  0  0  0  0  0  0  0
   10.1227  -11.9350    0.0000 C   0  0  1  0  0  0  0  0  0  0  0  0
    7.9793  -12.3475    0.0000 O   0  0  0  0  0  0  0  0  0  0  0  0
    9.4083  -13.1725    0.0000 O   0  0  0  0  0  0  0  0  0  0  0  0
   10.8372  -12.3475    0.0000 O   0  0  0  0  0  0  0  0  0  0  0  0
    7.9793  -10.6975    0.0000 C   0  0  0  0  0  0  0  0  0  0  0  0
    8.6938  -13.5850    0.0000 C   0  0  2  0  0  0  0  0  0  0  0  0
    7.9793  -13.1725    0.0000 O   0  0  0  0  0  0  0  0  0  0  0  0
    7.2648  -13.5850    0.0000 C   0  0  0  0  0  0  0  0  0  0  0  0
    7.2648  -14.4100    0.0000 C   0  0  2  0  0  0  0  0  0  0  0  0
    7.9793  -14.8225    0.0000 C   0  0  1  0  0  0  0  0  0  0  0  0
    8.6938  -14.4100    0.0000 C   0  0  1  0  0  0  0  0  0  0  0  0
    7.9793  -15.6475    0.0000 O   0  0  0  0  0  0  0  0  0  0  0  0
    9.4083  -14.8225    0.0000 O   0  0  0  0  0  0  0  0  0  0  0  0
    6.5504  -14.8225    0.0000 O   0  0  0  0  0  0  0  0  0  0  0  0
  1  2  1  0  0  0  0
  2  3  1  0  0  0  0
  3  4  1  0  0  0  0
  4  5  1  0  0  0  0
  5  6  1  0  0  0  0
  6  1  1  0  0  0  0
  4  7  1  0  0  0  0
  7  8  1  0  0  0  0
  8  9  1  0  0  0  0
  9 10  1  0  0  0  0
 10  5  1  0  0  0  0
  9 11  1  0  0  0  0
 11 12  1  0  0  0  0
 12 13  2  0  0  0  0
 13 14  1  0  0  0  0
 14 10  1  0  0  0  0
 11 15  1  0  0  0  0
 15 16  1  0  0  0  0
 16 17  1  0  0  0  0
 17 18  1  0  0  0  0
 18 12  1  0  0  0  0
 17 19  1  0  0  0  0
 19 20  1  0  0  0  0
 20 21  1  0  0  0  0
 21 22  1  0  0  0  0
 22 18  1  0  0  0  0
 21 23  1  0  0  0  0
 21 24  1  0  0  0  0
 18 25  1  1  0  0  0
 11 26  1  6  0  0  0
  9 27  1  1  0  0  0
 10 28  1  6  0  0  0
  5 29  1  1  0  0  0
  4 30  1  6  0  0  0
  3 31  1  1  0  0  0
  3 32  1  6  0  0  0
  2 33  1  1  0  0  0
 17 34  1  1  0  0  0
 32 35  1  0  0  0  0
 34 36  1  0  0  0  0
 34 37  2  0  0  0  0
 38 33  1  1  0  0  0
 38 39  1  0  0  0  0
 39 40  1  0  0  0  0
 40 41  1  0  0  0  0
 41 42  1  0  0  0  0
 42 43  1  0  0  0  0
 43 38  1  0  0  0  0
 43 44  1  6  0  0  0
 42 45  1  1  0  0  0
 41 46  1  1  0  0  0
 47 44  1  1  0  0  0
 47 48  1  0  0  0  0
 48 49  1  0  0  0  0
 49 50  1  0  0  0  0
 50 51  1  0  0  0  0
 51 52  1  0  0  0  0
 52 47  1  0  0  0  0
 50 53  1  1  0  0  0
 51 54  1  6  0  0  0
 52 55  1  6  0  0  0
 49 56  1  6  0  0  0
 57 54  1  1  0  0  0
 57 58  1  0  0  0  0
 58 59  1  0  0  0  0
 59 60  1  0  0  0  0
 60 61  1  0  0  0  0
 61 62  1  0  0  0  0
 62 57  1  0  0  0  0
 61 63  1  1  0  0  0
 62 64  1  6  0  0  0
 60 65  1  6  0  0  0
M  END
>  <cdx:fragmentId>
5

$$$$
