98660.cdx
  Mrv1902 05222410262D          

 67 74  0  0  0  0            999 V2000
   11.5310  -10.1222    0.0000 C   0  0  1  0  0  0  0  0  0  0  0  0
   11.5310   -9.2975    0.0000 C   0  0  0  0  0  0  0  0  0  0  0  0
   12.2452   -8.8851    0.0000 C   0  0  0  0  0  0  0  0  0  0  0  0
   12.2452  -10.5346    0.0000 C   0  0  2  0  0  0  0  0  0  0  0  0
   12.6576  -11.2489    0.0000 C   0  0  0  0  0  0  0  0  0  0  0  0
   11.8329  -11.2489    0.0000 C   0  0  0  0  0  0  0  0  0  0  0  0
   12.9595  -10.1222    0.0000 C   0  0  2  0  0  0  0  0  0  0  0  0
   12.9595  -10.9470    0.0000 H   0  0  0  0  0  0  0  0  0  0  0  0
   13.6737  -10.5346    0.0000 C   0  0  0  0  0  0  0  0  0  0  0  0
   14.3880  -10.1222    0.0000 C   0  0  0  0  0  0  0  0  0  0  0  0
   14.3880   -9.2975    0.0000 C   0  0  1  0  0  0  0  0  0  0  0  0
   14.3880   -8.4728    0.0000 C   0  0  0  0  0  0  0  0  0  0  0  0
   15.1022   -8.8851    0.0000 C   0  0  2  0  0  0  0  0  0  0  0  0
   15.1022   -9.7099    0.0000 C   0  0  0  0  0  0  0  0  0  0  0  0
   15.8165   -9.2975    0.0000 C   0  0  0  0  0  0  0  0  0  0  0  0
   16.5307   -8.8851    0.0000 C   0  0  0  0  0  0  0  0  0  0  0  0
   16.5307   -8.0604    0.0000 C   0  0  2  0  0  0  0  0  0  0  0  0
   17.2841   -8.3958    0.0000 C   0  0  0  0  0  0  0  0  0  0  0  0
   15.8165   -7.6480    0.0000 C   0  0  2  0  0  0  0  0  0  0  0  0
   15.1944   -7.2889    0.0000 H   0  0  0  0  0  0  0  0  0  0  0  0
   15.1022   -8.0604    0.0000 C   0  0  0  0  0  0  0  0  0  0  0  0
   14.3880   -7.6480    0.0000 C   0  0  0  0  0  0  0  0  0  0  0  0
   13.6737   -8.0604    0.0000 C   0  0  0  0  0  0  0  0  0  0  0  0
   13.6737   -8.8851    0.0000 C   0  0  2  0  0  0  0  0  0  0  0  0
   12.9595   -9.2975    0.0000 C   0  0  1  0  0  0  0  0  0  0  0  0
   12.9595   -8.4728    0.0000 C   0  0  0  0  0  0  0  0  0  0  0  0
   17.2859   -9.2206    0.0000 O   0  0  0  0  0  0  0  0  0  0  0  0
    7.9728   -8.8627    0.0000 O   0  0  0  0  0  0  0  0  0  0  0  0
    7.9662   -8.0380    0.0000 C   0  0  1  0  0  0  0  0  0  0  0  0
    7.2487   -7.6313    0.0000 C   0  0  2  0  0  0  0  0  0  0  0  0
    6.5378   -8.0494    0.0000 O   0  0  0  0  0  0  0  0  0  0  0  0
    7.2421   -6.8066    0.0000 C   0  0  1  0  0  0  0  0  0  0  0  0
    6.5245   -6.4000    0.0000 O   0  0  0  0  0  0  0  0  0  0  0  0
    7.9530   -6.3885    0.0000 C   0  0  1  0  0  0  0  0  0  0  0  0
    8.6705   -6.7952    0.0000 C   0  0  2  0  0  0  0  0  0  0  0  0
    8.6771   -7.6199    0.0000 O   0  0  0  0  0  0  0  0  0  0  0  0
    9.3814   -6.3771    0.0000 C   0  0  0  0  0  0  0  0  0  0  0  0
    9.3748   -5.5523    0.0000 O   0  0  0  0  0  0  0  0  0  0  0  0
   13.6737   -9.7099    0.0000 H   0  0  0  0  0  0  0  0  0  0  0  0
    6.5249  -11.3256    0.0000 C   0  0  0  0  0  0  0  0  0  0  0  0
    7.9533  -11.3368    0.0000 O   0  0  0  0  0  0  0  0  0  0  0  0
    7.2359  -11.7435    0.0000 C   0  0  2  0  0  0  0  0  0  0  0  0
    6.5119  -12.9750    0.0000 O   0  0  0  0  0  0  0  0  0  0  0  0
    7.2294  -12.5683    0.0000 C   0  0  2  0  0  0  0  0  0  0  0  0
    7.9339  -13.8110    0.0000 O   0  0  0  0  0  0  0  0  0  0  0  0
    7.9403  -12.9862    0.0000 C   0  0  1  0  0  0  0  0  0  0  0  0
    9.3688  -12.9975    0.0000 O   0  0  0  0  0  0  0  0  0  0  0  0
    8.6578  -12.5795    0.0000 C   0  0  1  0  0  0  0  0  0  0  0  0
    8.6643  -11.7548    0.0000 C   0  0  2  0  0  0  0  0  0  0  0  0
    7.9464   -5.5638    0.0000 O   0  0  0  0  0  0  0  0  0  0  0  0
   10.1123   -9.2919    0.0000 O   0  0  0  0  0  0  0  0  0  0  0  0
    9.4013   -8.8739    0.0000 C   0  0  0  0  0  0  0  0  0  0  0  0
    8.6838   -9.2807    0.0000 C   0  0  1  0  0  0  0  0  0  0  0  0
    7.9598  -10.5121    0.0000 O   0  0  0  0  0  0  0  0  0  0  0  0
    8.6773  -10.1054    0.0000 C   0  0  2  0  0  0  0  0  0  0  0  0
    9.3818  -11.3481    0.0000 O   0  0  0  0  0  0  0  0  0  0  0  0
    9.3883  -10.5234    0.0000 C   0  0  1  0  0  0  0  0  0  0  0  0
   10.1058  -10.1166    0.0000 C   0  0  2  0  0  0  0  0  0  0  0  0
   10.8167  -10.5346    0.0000 O   0  0  0  0  0  0  0  0  0  0  0  0
   17.9975   -7.9819    0.0000 O   0  0  0  0  0  0  0  0  0  0  0  0
   17.2449   -7.6480    0.0000 C   0  0  0  0  0  0  0  0  0  0  0  0
   17.2449   -6.8233    0.0000 C   0  0  0  0  0  0  0  0  0  0  0  0
   16.5307   -6.4109    0.0000 C   0  0  0  0  0  0  0  0  0  0  0  0
   15.8165   -6.8233    0.0000 C   0  0  0  0  0  0  0  0  0  0  0  0
   16.1347   -5.7251    0.0000 C   0  0  0  0  0  0  0  0  0  0  0  0
   16.9016   -5.7686    0.0000 C   0  0  0  0  0  0  0  0  0  0  0  0
   12.2452  -11.9631    0.0000 O   0  0  0  0  0  0  0  0  0  0  0  0
 58 59  1  1  0  0  0
 49 56  1  1  0  0  0
 49 41  1  0  0  0  0
 42 40  1  6  0  0  0
 42 41  1  0  0  0  0
 44 42  1  0  0  0  0
 44 43  1  1  0  0  0
 46 44  1  0  0  0  0
 46 45  1  6  0  0  0
 48 46  1  0  0  0  0
 48 47  1  6  0  0  0
 49 48  1  0  0  0  0
 29 30  1  0  0  0  0
 58 51  1  0  0  0  0
 52 51  1  0  0  0  0
 53 52  1  0  0  0  0
 53 28  1  1  0  0  0
 55 53  1  0  0  0  0
 55 54  1  1  0  0  0
  1  2  1  0  0  0  0
  2  3  1  0  0  0  0
  1  4  1  0  0  0  0
  4  5  1  6  0  0  0
  4  6  1  1  0  0  0
  4  7  1  0  0  0  0
  7  8  1  6  0  0  0
  7  9  1  0  0  0  0
  9 10  1  0  0  0  0
 10 11  1  0  0  0  0
 11 12  1  1  0  0  0
 11 13  1  0  0  0  0
 13 14  1  6  0  0  0
 13 15  1  0  0  0  0
 15 16  1  0  0  0  0
 16 17  1  0  0  0  0
 17 18  1  1  0  0  0
 19 20  1  1  0  0  0
 17 19  1  0  0  0  0
 19 21  1  0  0  0  0
 13 21  1  0  0  0  0
 21 22  2  0  0  0  0
 22 23  1  0  0  0  0
 23 24  1  0  0  0  0
 11 24  1  0  0  0  0
 24 25  1  0  0  0  0
  3 25  1  0  0  0  0
  7 25  1  0  0  0  0
 25 26  1  1  0  0  0
 18 27  2  0  0  0  0
 18 60  1  0  0  0  0
 57 55  1  0  0  0  0
 57 56  1  6  0  0  0
 58 57  1  0  0  0  0
 30 31  1  6  0  0  0
 30 32  1  0  0  0  0
 32 33  1  1  0  0  0
 32 34  1  0  0  0  0
 34 50  1  6  0  0  0
 34 35  1  0  0  0  0
 35 36  1  0  0  0  0
 35 37  1  1  0  0  0
 37 38  1  0  0  0  0
 29 36  1  0  0  0  0
 29 28  1  1  0  0  0
  1 59  1  1  0  0  0
 24 39  1  6  0  0  0
 17 61  1  0  0  0  0
 61 62  1  0  0  0  0
 62 63  1  0  0  0  0
 63 64  1  0  0  0  0
 64 19  1  0  0  0  0
 63 65  1  0  0  0  0
 63 66  1  0  0  0  0
  5 67  1  0  0  0  0
M  END
>  <cdx:groupId>
346

>  <cdx:fragmentId>
95

$$$$
