98678.cdx
  Mrv1902 05222410192D          

 21 22  0  0  0  0            999 V2000
    6.6898   -5.1429    0.0000 C   0  0  0  0  0  0  0  0  0  0  0  0
    6.6783   -5.9679    0.0000 C   0  0  0  0  0  0  0  0  0  0  0  0
    7.3870   -6.3903    0.0000 C   0  0  0  0  0  0  0  0  0  0  0  0
    8.1071   -5.9878    0.0000 C   0  0  0  0  0  0  0  0  0  0  0  0
    8.1186   -5.1629    0.0000 C   0  0  0  0  0  0  0  0  0  0  0  0
    7.4100   -4.7405    0.0000 C   0  0  0  0  0  0  0  0  0  0  0  0
    5.9812   -4.7205    0.0000 O   0  0  0  0  0  0  0  0  0  0  0  0
    8.8158   -6.4103    0.0000 C   0  0  0  0  0  0  0  0  0  0  0  0
    8.8042   -7.2352    0.0000 C   0  0  0  0  0  0  0  0  0  0  0  0
    8.0841   -7.6377    0.0000 C   0  0  2  0  0  0  0  0  0  0  0  0
    7.3754   -7.2152    0.0000 C   0  0  0  0  0  0  0  0  0  0  0  0
    6.6553   -7.6177    0.0000 C   0  0  0  0  0  0  0  0  0  0  0  0
    8.0725   -8.4626    0.0000 C   0  0  0  0  0  0  0  0  0  0  0  0
    8.7812   -8.8850    0.0000 C   0  0  0  0  0  0  0  0  0  0  0  0
    8.7697   -9.7099    0.0000 C   0  0  0  0  0  0  0  0  0  0  0  0
    8.0495  -10.1124    0.0000 C   0  0  0  0  0  0  0  0  0  0  0  0
    7.3409   -9.6900    0.0000 C   0  0  0  0  0  0  0  0  0  0  0  0
    7.3524   -8.8651    0.0000 C   0  0  0  0  0  0  0  0  0  0  0  0
    8.0380  -10.9373    0.0000 O   0  0  0  0  0  0  0  0  0  0  0  0
    9.4783  -10.1324    0.0000 O   0  0  0  0  0  0  0  0  0  0  0  0
    9.4783  -10.9574    0.0000 C   0  0  0  0  0  0  0  0  0  0  0  0
  1  2  1  0  0  0  0
  2  3  2  0  0  0  0
  3  4  1  0  0  0  0
  4  5  2  0  0  0  0
  5  6  1  0  0  0  0
  1  6  2  0  0  0  0
  1  7  1  0  0  0  0
  8  9  2  0  0  0  0
 10  9  1  1  0  0  0
 10 11  1  0  0  0  0
 11 12  2  0  0  0  0
 13 14  1  0  0  0  0
 14 15  2  0  0  0  0
 15 16  1  0  0  0  0
 16 17  2  0  0  0  0
 17 18  1  0  0  0  0
 13 18  2  0  0  0  0
 16 19  1  0  0  0  0
 10 13  1  0  0  0  0
  4  8  1  0  0  0  0
 15 20  1  0  0  0  0
 20 21  1  0  0  0  0
M  END
>  <cdx:fragmentId>
17844

$$$$
