98673.cdx
  Mrv1902 05222410282D          

 14 13  0  0  0  0            999 V2000
    2.5194   -3.5610    0.0000 C   0  0  0  0  0  0  0  0  0  0  0  0
    3.2339   -3.1485    0.0000 C   0  0  0  0  0  0  0  0  0  0  0  0
    3.9484   -3.5610    0.0000 C   0  0  0  0  0  0  0  0  0  0  0  0
    4.6628   -3.1485    0.0000 C   0  0  0  0  0  0  0  0  0  0  0  0
    5.3773   -3.5610    0.0000 C   0  0  0  0  0  0  0  0  0  0  0  0
    6.0918   -3.1485    0.0000 C   0  0  0  0  0  0  0  0  0  0  0  0
    6.8062   -3.5610    0.0000 C   0  0  0  0  0  0  0  0  0  0  0  0
    7.5207   -3.1485    0.0000 C   0  0  0  0  0  0  0  0  0  0  0  0
    8.2352   -3.5610    0.0000 C   0  0  0  0  0  0  0  0  0  0  0  0
    8.9497   -3.1485    0.0000 C   0  0  0  0  0  0  0  0  0  0  0  0
    9.6641   -3.5610    0.0000 C   0  0  0  0  0  0  0  0  0  0  0  0
   10.3786   -3.1485    0.0000 C   0  0  0  0  0  0  0  0  0  0  0  0
   11.0931   -3.5610    0.0000 C   0  0  0  0  0  0  0  0  0  0  0  0
    4.6628   -2.3235    0.0000 O   0  0  0  0  0  0  0  0  0  0  0  0
  1  2  1  0  0  0  0
  2  3  1  0  0  0  0
  3  4  1  0  0  0  0
  4  5  1  0  0  0  0
  5  6  1  0  0  0  0
  6  7  1  0  0  0  0
  7  8  1  0  0  0  0
  8  9  1  0  0  0  0
  9 10  1  0  0  0  0
 10 11  1  0  0  0  0
 11 12  1  0  0  0  0
 12 13  1  0  0  0  0
  4 14  2  0  0  0  0
M  END
>  <cdx:groupId>
43

>  <cdx:fragmentId>
5

$$$$
