98684.cdx
  Mrv1902 05222410202D          

 78 86  0  0  0  0            999 V2000
    9.2273   -5.0721    0.0000 C   0  0  0  0  0  0  0  0  0  0  0  0
    9.7989   -4.7421    0.0000 C   0  0  0  0  0  0  0  0  0  0  0  0
   10.3705   -5.0721    0.0000 C   0  0  0  0  0  0  0  0  0  0  0  0
   10.3705   -5.7321    0.0000 C   0  0  0  0  0  0  0  0  0  0  0  0
    9.7989   -6.0621    0.0000 C   0  0  2  0  0  0  0  0  0  0  0  0
    9.7989   -6.7221    0.0000 C   0  0  0  0  0  0  0  0  0  0  0  0
    9.2273   -7.0521    0.0000 C   0  0  0  0  0  0  0  0  0  0  0  0
    8.6557   -6.7221    0.0000 C   0  0  1  0  0  0  0  0  0  0  0  0
    8.0842   -7.0521    0.0000 C   0  0  2  0  0  0  0  0  0  0  0  0
    8.0842   -7.7121    0.0000 C   0  0  0  0  0  0  0  0  0  0  0  0
    7.5126   -8.0421    0.0000 C   0  0  0  0  0  0  0  0  0  0  0  0
    6.9410   -7.7121    0.0000 C   0  0  1  0  0  0  0  0  0  0  0  0
    6.3694   -8.0421    0.0000 C   0  0  2  0  0  0  0  0  0  0  0  0
    5.7979   -7.7121    0.0000 C   0  0  2  0  0  0  0  0  0  0  0  0
    5.7979   -7.0521    0.0000 C   0  0  2  0  0  0  0  0  0  0  0  0
    6.3694   -6.7221    0.0000 C   0  0  0  0  0  0  0  0  0  0  0  0
    6.9410   -7.0521    0.0000 C   0  0  1  0  0  0  0  0  0  0  0  0
    7.5126   -6.7221    0.0000 C   0  0  0  0  0  0  0  0  0  0  0  0
    7.5126   -6.0621    0.0000 C   0  0  0  0  0  0  0  0  0  0  0  0
    8.0842   -5.7321    0.0000 C   0  0  0  0  0  0  0  0  0  0  0  0
    8.6557   -6.0621    0.0000 C   0  0  0  0  0  0  0  0  0  0  0  0
    9.2273   -5.7321    0.0000 C   0  0  2  0  0  0  0  0  0  0  0  0
   10.3705   -6.3921    0.0000 C   0  0  0  0  0  0  0  0  0  0  0  0
   10.3705   -7.0521    0.0000 O   0  0  0  0  0  0  0  0  0  0  0  0
   10.9420   -6.0621    0.0000 O   0  0  0  0  0  0  0  0  0  0  0  0
    6.9410   -6.3921    0.0000 C   0  0  0  0  0  0  0  0  0  0  0  0
    6.0394   -8.6136    0.0000 C   0  0  0  0  0  0  0  0  0  0  0  0
    9.4689   -4.1705    0.0000 C   0  0  0  0  0  0  0  0  0  0  0  0
   10.1289   -4.1705    0.0000 C   0  0  0  0  0  0  0  0  0  0  0  0
    6.6994   -8.6136    0.0000 C   0  0  0  0  0  0  0  0  0  0  0  0
    6.3694   -9.1852    0.0000 O   0  0  0  0  0  0  0  0  0  0  0  0
    5.2263   -6.7221    0.0000 O   0  0  0  0  0  0  0  0  0  0  0  0
    5.2263   -8.0421    0.0000 O   0  0  0  0  0  0  0  0  0  0  0  0
    6.9410   -8.3721    0.0000 H   0  0  0  0  0  0  0  0  0  0  0  0
    9.2273   -6.3921    0.0000 H   0  0  0  0  0  0  0  0  0  0  0  0
    8.4142   -7.6236    0.0000 C   0  0  0  0  0  0  0  0  0  0  0  0
    8.9857   -7.2936    0.0000 C   0  0  0  0  0  0  0  0  0  0  0  0
    4.0753   -6.7151    0.0000 C   0  0  2  0  0  0  0  0  0  0  0  0
    3.5031   -7.0439    0.0000 C   0  0  2  0  0  0  0  0  0  0  0  0
    3.5018   -7.7039    0.0000 C   0  0  1  0  0  0  0  0  0  0  0  0
    4.0727   -8.0351    0.0000 C   0  0  2  0  0  0  0  0  0  0  0  0
    4.6449   -7.7062    0.0000 C   0  0  1  0  0  0  0  0  0  0  0  0
    4.6462   -7.0462    0.0000 O   0  0  0  0  0  0  0  0  0  0  0  0
    4.0766   -6.0551    0.0000 C   0  0  0  0  0  0  0  0  0  0  0  0
    2.9295   -8.0328    0.0000 O   0  0  0  0  0  0  0  0  0  0  0  0
    2.9322   -6.7128    0.0000 O   0  0  0  0  0  0  0  0  0  0  0  0
    4.0713   -8.6951    0.0000 O   0  0  0  0  0  0  0  0  0  0  0  0
    3.5057   -5.7239    0.0000 O   0  0  0  0  0  0  0  0  0  0  0  0
    9.0650   -8.2029    0.0000 C   0  0  2  0  0  0  0  0  0  0  0  0
    9.3958   -8.7740    0.0000 C   0  0  2  0  0  0  0  0  0  0  0  0
   10.0558   -8.7731    0.0000 C   0  0  1  0  0  0  0  0  0  0  0  0
   10.3850   -8.2011    0.0000 C   0  0  2  0  0  0  0  0  0  0  0  0
   10.0543   -7.6300    0.0000 C   0  0  1  0  0  0  0  0  0  0  0  0
    9.3943   -7.6309    0.0000 O   0  0  0  0  0  0  0  0  0  0  0  0
    8.4050   -8.2038    0.0000 C   0  0  0  0  0  0  0  0  0  0  0  0
   10.3866   -9.3443    0.0000 O   0  0  0  0  0  0  0  0  0  0  0  0
    9.0666   -9.3461    0.0000 O   0  0  0  0  0  0  0  0  0  0  0  0
   11.0450   -8.2002    0.0000 O   0  0  0  0  0  0  0  0  0  0  0  0
    8.0758   -8.7758    0.0000 O   0  0  0  0  0  0  0  0  0  0  0  0
   11.3884   -9.9188    0.0000 C   0  0  1  0  0  0  0  0  0  0  0  0
   12.0484   -9.9166    0.0000 C   0  0  1  0  0  0  0  0  0  0  0  0
   12.3766   -9.3440    0.0000 C   0  0  2  0  0  0  0  0  0  0  0  0
   12.0447   -8.7735    0.0000 C   0  0  2  0  0  0  0  0  0  0  0  0
   11.3847   -8.7756    0.0000 C   0  0  1  0  0  0  0  0  0  0  0  0
   11.0566   -9.3483    0.0000 O   0  0  0  0  0  0  0  0  0  0  0  0
   12.3803  -10.4871    0.0000 O   0  0  0  0  0  0  0  0  0  0  0  0
   11.0603  -10.4914    0.0000 C   0  0  0  0  0  0  0  0  0  0  0  0
   13.0366   -9.3418    0.0000 O   0  0  0  0  0  0  0  0  0  0  0  0
   12.3729   -8.2008    0.0000 O   0  0  0  0  0  0  0  0  0  0  0  0
   11.0553  -11.6391    0.0000 C   0  0  0  0  0  0  0  0  0  0  0  0
   11.3861  -12.2102    0.0000 C   0  0  2  0  0  0  0  0  0  0  0  0
   12.0461  -12.2094    0.0000 C   0  0  1  0  0  0  0  0  0  0  0  0
   12.3753  -11.6373    0.0000 C   0  0  2  0  0  0  0  0  0  0  0  0
   12.0446  -11.0662    0.0000 C   0  0  1  0  0  0  0  0  0  0  0  0
   11.3846  -11.0671    0.0000 O   0  0  0  0  0  0  0  0  0  0  0  0
   12.3769  -12.7805    0.0000 O   0  0  0  0  0  0  0  0  0  0  0  0
   11.0569  -12.7823    0.0000 O   0  0  0  0  0  0  0  0  0  0  0  0
   13.0353  -11.6365    0.0000 O   0  0  0  0  0  0  0  0  0  0  0  0
  1  2  1  0  0  0  0
  2  3  1  0  0  0  0
  3  4  1  0  0  0  0
  4  5  1  0  0  0  0
  5  6  1  0  0  0  0
  6  7  1  0  0  0  0
  7  8  1  0  0  0  0
  8  9  1  0  0  0  0
  9 10  1  0  0  0  0
 10 11  1  0  0  0  0
 11 12  1  0  0  0  0
 12 13  1  0  0  0  0
 13 14  1  0  0  0  0
 14 15  1  0  0  0  0
 15 16  1  0  0  0  0
 16 17  1  0  0  0  0
 12 17  1  0  0  0  0
 17 18  1  0  0  0  0
  9 18  1  0  0  0  0
 18 19  1  0  0  0  0
 19 20  1  0  0  0  0
 20 21  2  0  0  0  0
  8 21  1  0  0  0  0
 21 22  1  0  0  0  0
  5 22  1  0  0  0  0
  1 22  1  0  0  0  0
 23 24  1  0  0  0  0
 23 25  2  0  0  0  0
  5 23  1  1  0  0  0
 17 26  1  6  0  0  0
 13 27  1  1  0  0  0
  2 28  1  0  0  0  0
  2 29  1  0  0  0  0
 30 31  1  0  0  0  0
 13 30  1  6  0  0  0
 15 32  1  1  0  0  0
 14 33  1  1  0  0  0
 12 34  1  6  0  0  0
 22 35  1  1  0  0  0
  9 36  1  1  0  0  0
  8 37  1  6  0  0  0
 38 39  1  0  0  0  0
 39 40  1  0  0  0  0
 40 41  1  0  0  0  0
 41 42  1  0  0  0  0
 42 43  1  0  0  0  0
 43 38  1  0  0  0  0
 38 44  1  1  0  0  0
 40 45  1  1  0  0  0
 39 46  1  6  0  0  0
 41 47  1  6  0  0  0
 44 48  1  0  0  0  0
 49 50  1  0  0  0  0
 50 51  1  0  0  0  0
 51 52  1  0  0  0  0
 52 53  1  0  0  0  0
 53 54  1  0  0  0  0
 54 49  1  0  0  0  0
 49 55  1  1  0  0  0
 51 56  1  1  0  0  0
 50 57  1  6  0  0  0
 52 58  1  6  0  0  0
 55 59  1  0  0  0  0
 60 61  1  0  0  0  0
 61 62  1  0  0  0  0
 62 63  1  0  0  0  0
 63 64  1  0  0  0  0
 64 65  1  0  0  0  0
 65 60  1  0  0  0  0
 61 66  1  1  0  0  0
 60 67  1  6  0  0  0
 62 68  1  6  0  0  0
 63 69  1  6  0  0  0
 64 58  1  1  0  0  0
 70 71  1  0  0  0  0
 71 72  1  0  0  0  0
 72 73  1  0  0  0  0
 73 74  1  0  0  0  0
 74 75  1  0  0  0  0
 75 70  1  0  0  0  0
 72 76  1  1  0  0  0
 71 77  1  6  0  0  0
 73 78  1  6  0  0  0
 74 66  1  1  0  0  0
 42 33  1  1  0  0  0
 53 24  1  1  0  0  0
M  END
>  <cdx:fragmentId>
5

$$$$
