98687.cdx
  Mrv1902 05222410192D          

 79 87  0  0  0  0            999 V2000
    8.0311   -5.3471    0.0000 C   0  0  0  0  0  0  0  0  0  0  0  0
    8.6026   -5.0171    0.0000 C   0  0  0  0  0  0  0  0  0  0  0  0
    9.1742   -5.3471    0.0000 C   0  0  0  0  0  0  0  0  0  0  0  0
    9.1742   -6.0071    0.0000 C   0  0  0  0  0  0  0  0  0  0  0  0
    8.6026   -6.3371    0.0000 C   0  0  2  0  0  0  0  0  0  0  0  0
    8.6026   -6.9971    0.0000 C   0  0  0  0  0  0  0  0  0  0  0  0
    8.0311   -7.3271    0.0000 C   0  0  0  0  0  0  0  0  0  0  0  0
    7.4595   -6.9971    0.0000 C   0  0  1  0  0  0  0  0  0  0  0  0
    6.8879   -7.3271    0.0000 C   0  0  2  0  0  0  0  0  0  0  0  0
    6.8879   -7.9871    0.0000 C   0  0  0  0  0  0  0  0  0  0  0  0
    6.3163   -8.3171    0.0000 C   0  0  0  0  0  0  0  0  0  0  0  0
    5.7448   -7.9871    0.0000 C   0  0  1  0  0  0  0  0  0  0  0  0
    5.1732   -8.3171    0.0000 C   0  0  2  0  0  0  0  0  0  0  0  0
    4.6016   -7.9871    0.0000 C   0  0  2  0  0  0  0  0  0  0  0  0
    4.6016   -7.3271    0.0000 C   0  0  2  0  0  0  0  0  0  0  0  0
    5.1732   -6.9971    0.0000 C   0  0  0  0  0  0  0  0  0  0  0  0
    5.7448   -7.3271    0.0000 C   0  0  2  0  0  0  0  0  0  0  0  0
    6.3163   -6.9971    0.0000 C   0  0  0  0  0  0  0  0  0  0  0  0
    6.3163   -6.3371    0.0000 C   0  0  0  0  0  0  0  0  0  0  0  0
    6.8879   -6.0071    0.0000 C   0  0  0  0  0  0  0  0  0  0  0  0
    7.4595   -6.3371    0.0000 C   0  0  0  0  0  0  0  0  0  0  0  0
    8.0311   -6.0071    0.0000 C   0  0  2  0  0  0  0  0  0  0  0  0
    9.1742   -6.6671    0.0000 C   0  0  0  0  0  0  0  0  0  0  0  0
    9.1742   -7.3271    0.0000 O   0  0  0  0  0  0  0  0  0  0  0  0
    9.7458   -6.3371    0.0000 O   0  0  0  0  0  0  0  0  0  0  0  0
    5.7448   -6.6671    0.0000 C   0  0  0  0  0  0  0  0  0  0  0  0
    4.8432   -8.8886    0.0000 C   0  0  0  0  0  0  0  0  0  0  0  0
    8.2726   -4.4455    0.0000 C   0  0  0  0  0  0  0  0  0  0  0  0
    8.9326   -4.4455    0.0000 C   0  0  0  0  0  0  0  0  0  0  0  0
    5.5032   -8.8886    0.0000 C   0  0  0  0  0  0  0  0  0  0  0  0
    5.1732   -9.4602    0.0000 O   0  0  0  0  0  0  0  0  0  0  0  0
    4.0300   -6.9971    0.0000 O   0  0  0  0  0  0  0  0  0  0  0  0
    4.0300   -8.3171    0.0000 O   0  0  0  0  0  0  0  0  0  0  0  0
    5.7448   -8.6471    0.0000 H   0  0  0  0  0  0  0  0  0  0  0  0
    8.0311   -6.6671    0.0000 H   0  0  0  0  0  0  0  0  0  0  0  0
    7.2179   -7.8986    0.0000 C   0  0  0  0  0  0  0  0  0  0  0  0
    7.7895   -7.5686    0.0000 C   0  0  0  0  0  0  0  0  0  0  0  0
    2.8791   -6.9901    0.0000 C   0  0  2  0  0  0  0  0  0  0  0  0
    2.3068   -7.3189    0.0000 C   0  0  2  0  0  0  0  0  0  0  0  0
    2.3055   -7.9789    0.0000 C   0  0  1  0  0  0  0  0  0  0  0  0
    2.8764   -8.3101    0.0000 C   0  0  2  0  0  0  0  0  0  0  0  0
    3.4487   -7.9812    0.0000 C   0  0  1  0  0  0  0  0  0  0  0  0
    3.4500   -7.3212    0.0000 O   0  0  0  0  0  0  0  0  0  0  0  0
    2.8804   -6.3301    0.0000 C   0  0  0  0  0  0  0  0  0  0  0  0
    1.7333   -8.3078    0.0000 O   0  0  0  0  0  0  0  0  0  0  0  0
    1.7359   -6.9878    0.0000 O   0  0  0  0  0  0  0  0  0  0  0  0
    2.8751   -8.9701    0.0000 O   0  0  0  0  0  0  0  0  0  0  0  0
    2.3095   -5.9989    0.0000 O   0  0  0  0  0  0  0  0  0  0  0  0
    7.8688   -8.4779    0.0000 C   0  0  2  0  0  0  0  0  0  0  0  0
    8.1996   -9.0490    0.0000 C   0  0  2  0  0  0  0  0  0  0  0  0
    8.8596   -9.0481    0.0000 C   0  0  1  0  0  0  0  0  0  0  0  0
    9.1888   -8.4761    0.0000 C   0  0  2  0  0  0  0  0  0  0  0  0
    8.8580   -7.9050    0.0000 C   0  0  1  0  0  0  0  0  0  0  0  0
    8.1980   -7.9059    0.0000 O   0  0  0  0  0  0  0  0  0  0  0  0
    7.2088   -8.4788    0.0000 C   0  0  0  0  0  0  0  0  0  0  0  0
    9.1903   -9.6193    0.0000 O   0  0  0  0  0  0  0  0  0  0  0  0
    7.8703   -9.6211    0.0000 O   0  0  0  0  0  0  0  0  0  0  0  0
    9.8488   -8.4752    0.0000 O   0  0  0  0  0  0  0  0  0  0  0  0
    6.8796   -9.0508    0.0000 O   0  0  0  0  0  0  0  0  0  0  0  0
   10.1922  -10.1938    0.0000 C   0  0  1  0  0  0  0  0  0  0  0  0
   10.8522  -10.1916    0.0000 C   0  0  1  0  0  0  0  0  0  0  0  0
   11.1803   -9.6190    0.0000 C   0  0  2  0  0  0  0  0  0  0  0  0
   10.8485   -9.0485    0.0000 C   0  0  2  0  0  0  0  0  0  0  0  0
   10.1885   -9.0506    0.0000 C   0  0  1  0  0  0  0  0  0  0  0  0
    9.8603   -9.6233    0.0000 O   0  0  0  0  0  0  0  0  0  0  0  0
   11.1840  -10.7621    0.0000 O   0  0  0  0  0  0  0  0  0  0  0  0
    9.8640  -10.7664    0.0000 C   0  0  0  0  0  0  0  0  0  0  0  0
   11.8403   -9.6168    0.0000 O   0  0  0  0  0  0  0  0  0  0  0  0
   11.1766   -8.4758    0.0000 O   0  0  0  0  0  0  0  0  0  0  0  0
    9.8591  -11.9141    0.0000 C   0  0  0  0  0  0  0  0  0  0  0  0
   10.1899  -12.4852    0.0000 C   0  0  2  0  0  0  0  0  0  0  0  0
   10.8498  -12.4844    0.0000 C   0  0  1  0  0  0  0  0  0  0  0  0
   11.1791  -11.9123    0.0000 C   0  0  2  0  0  0  0  0  0  0  0  0
   10.8483  -11.3412    0.0000 C   0  0  1  0  0  0  0  0  0  0  0  0
   10.1883  -11.3421    0.0000 O   0  0  0  0  0  0  0  0  0  0  0  0
   11.1806  -13.0555    0.0000 O   0  0  0  0  0  0  0  0  0  0  0  0
    9.8606  -13.0573    0.0000 O   0  0  0  0  0  0  0  0  0  0  0  0
   11.8391  -11.9115    0.0000 O   0  0  0  0  0  0  0  0  0  0  0  0
    6.0944   -9.0949    0.0000 O   0  0  0  0  0  0  0  0  0  0  0  0
  1  2  1  0  0  0  0
  2  3  1  0  0  0  0
  3  4  1  0  0  0  0
  4  5  1  0  0  0  0
  5  6  1  0  0  0  0
  6  7  1  0  0  0  0
  7  8  1  0  0  0  0
  8  9  1  0  0  0  0
  9 10  1  0  0  0  0
 10 11  1  0  0  0  0
 11 12  1  0  0  0  0
 12 13  1  0  0  0  0
 13 14  1  0  0  0  0
 14 15  1  0  0  0  0
 15 16  1  0  0  0  0
 16 17  1  0  0  0  0
 12 17  1  0  0  0  0
 17 18  1  0  0  0  0
  9 18  1  0  0  0  0
 18 19  1  0  0  0  0
 19 20  1  0  0  0  0
 20 21  2  0  0  0  0
  8 21  1  0  0  0  0
 21 22  1  0  0  0  0
  5 22  1  0  0  0  0
  1 22  1  0  0  0  0
 23 24  1  0  0  0  0
 23 25  2  0  0  0  0
  5 23  1  1  0  0  0
 17 26  1  1  0  0  0
 13 27  1  1  0  0  0
  2 28  1  0  0  0  0
  2 29  1  0  0  0  0
 30 31  1  0  0  0  0
 13 30  1  6  0  0  0
 15 32  1  1  0  0  0
 14 33  1  1  0  0  0
 12 34  1  6  0  0  0
 22 35  1  1  0  0  0
  9 36  1  1  0  0  0
  8 37  1  6  0  0  0
 38 39  1  0  0  0  0
 39 40  1  0  0  0  0
 40 41  1  0  0  0  0
 41 42  1  0  0  0  0
 42 43  1  0  0  0  0
 43 38  1  0  0  0  0
 38 44  1  1  0  0  0
 40 45  1  1  0  0  0
 39 46  1  6  0  0  0
 41 47  1  6  0  0  0
 44 48  1  0  0  0  0
 49 50  1  0  0  0  0
 50 51  1  0  0  0  0
 51 52  1  0  0  0  0
 52 53  1  0  0  0  0
 53 54  1  0  0  0  0
 54 49  1  0  0  0  0
 49 55  1  1  0  0  0
 51 56  1  1  0  0  0
 50 57  1  6  0  0  0
 52 58  1  6  0  0  0
 55 59  1  0  0  0  0
 60 61  1  0  0  0  0
 61 62  1  0  0  0  0
 62 63  1  0  0  0  0
 63 64  1  0  0  0  0
 64 65  1  0  0  0  0
 65 60  1  0  0  0  0
 61 66  1  1  0  0  0
 60 67  1  6  0  0  0
 62 68  1  6  0  0  0
 63 69  1  6  0  0  0
 64 58  1  1  0  0  0
 70 71  1  0  0  0  0
 71 72  1  0  0  0  0
 72 73  1  0  0  0  0
 73 74  1  0  0  0  0
 74 75  1  0  0  0  0
 75 70  1  0  0  0  0
 72 76  1  1  0  0  0
 71 77  1  6  0  0  0
 73 78  1  6  0  0  0
 74 66  1  1  0  0  0
 42 33  1  1  0  0  0
 53 24  1  1  0  0  0
 30 79  2  0  0  0  0
M  END
>  <cdx:fragmentId>
5

$$$$
