98698.cdx
  Mrv1902 05222410282D          

 25 28  0  0  0  0            999 V2000
    4.4874   -5.9400    0.0000 C   0  0  0  0  0  0  0  0  0  0  0  0
    4.4874   -6.7650    0.0000 C   0  0  0  0  0  0  0  0  0  0  0  0
    5.2019   -7.1775    0.0000 C   0  0  0  0  0  0  0  0  0  0  0  0
    5.9164   -6.7650    0.0000 C   0  0  0  0  0  0  0  0  0  0  0  0
    5.9164   -5.9400    0.0000 C   0  0  0  0  0  0  0  0  0  0  0  0
    5.2019   -5.5275    0.0000 C   0  0  0  0  0  0  0  0  0  0  0  0
    6.6308   -7.1775    0.0000 C   0  0  1  0  0  0  0  0  0  0  0  0
    7.3453   -6.7650    0.0000 C   0  0  1  0  0  0  0  0  0  0  0  0
    7.3453   -5.9400    0.0000 C   0  0  0  0  0  0  0  0  0  0  0  0
    6.6308   -5.5275    0.0000 O   0  0  0  0  0  0  0  0  0  0  0  0
    6.8024   -7.9845    0.0000 O   0  0  0  0  0  0  0  0  0  0  0  0
    7.6228   -8.0707    0.0000 C   0  0  0  0  0  0  0  0  0  0  0  0
    7.9584   -7.3170    0.0000 O   0  0  0  0  0  0  0  0  0  0  0  0
    8.1703   -7.8645    0.0000 C   0  0  0  0  0  0  0  0  0  0  0  0
    8.1703   -8.6895    0.0000 C   0  0  0  0  0  0  0  0  0  0  0  0
    7.4558   -9.1020    0.0000 C   0  0  0  0  0  0  0  0  0  0  0  0
    7.4558   -9.9270    0.0000 C   0  0  0  0  0  0  0  0  0  0  0  0
    8.1703  -10.3395    0.0000 C   0  0  0  0  0  0  0  0  0  0  0  0
    8.8848   -9.9270    0.0000 C   0  0  0  0  0  0  0  0  0  0  0  0
    8.8848   -9.1020    0.0000 C   0  0  0  0  0  0  0  0  0  0  0  0
    8.1703  -11.1645    0.0000 O   0  0  0  0  0  0  0  0  0  0  0  0
    9.5993  -10.3395    0.0000 O   0  0  0  0  0  0  0  0  0  0  0  0
    7.2103   -8.7852    0.0000 C   0  0  0  0  0  0  0  0  0  0  0  0
    8.4197   -8.2842    0.0000 C   0  0  0  0  0  0  0  0  0  0  0  0
    3.7730   -5.5275    0.0000 O   0  0  0  0  0  0  0  0  0  0  0  0
  1  2  2  0  0  0  0
  2  3  1  0  0  0  0
  3  4  2  0  0  0  0
  4  5  1  0  0  0  0
  5  6  2  0  0  0  0
  6  1  1  0  0  0  0
  4  7  1  0  0  0  0
  7  8  1  0  0  0  0
  8  9  1  0  0  0  0
  9 10  1  0  0  0  0
 10  5  1  0  0  0  0
  7 11  1  1  0  0  0
 11 12  1  0  0  0  0
 12 13  1  0  0  0  0
  8 13  1  1  0  0  0
  8 14  1  0  0  0  0
 14 15  1  0  0  0  0
 15 16  2  0  0  0  0
 16 17  1  0  0  0  0
 17 18  2  0  0  0  0
 18 19  1  0  0  0  0
 19 20  2  0  0  0  0
 20 15  1  0  0  0  0
 18 21  1  0  0  0  0
 19 22  1  0  0  0  0
 12 23  1  0  0  0  0
 12 24  1  0  0  0  0
  1 25  1  0  0  0  0
M  END
>  <cdx:fragmentId>
5

$$$$
