98691.cdx
  Mrv1902 05222410202D          

 76 84  0  0  0  0            999 V2000
    4.6799   -6.8475    0.0000 C   0  0  2  0  0  0  0  0  0  0  0  0
    4.6799   -7.6725    0.0000 C   0  0  1  0  0  0  0  0  0  0  0  0
    5.3944   -8.0850    0.0000 C   0  0  1  0  0  0  0  0  0  0  0  0
    6.1089   -7.6725    0.0000 C   0  0  0  0  0  0  0  0  0  0  0  0
    6.1089   -6.8475    0.0000 C   0  0  2  0  0  0  0  0  0  0  0  0
    5.3944   -6.4350    0.0000 C   0  0  0  0  0  0  0  0  0  0  0  0
    6.8233   -8.0850    0.0000 C   0  0  0  0  0  0  0  0  0  0  0  0
    7.5378   -7.6725    0.0000 C   0  0  0  0  0  0  0  0  0  0  0  0
    7.5378   -6.8475    0.0000 C   0  0  2  0  0  0  0  0  0  0  0  0
    6.8233   -6.4350    0.0000 C   0  0  0  0  0  0  0  0  0  0  0  0
    8.2523   -6.4350    0.0000 C   0  0  1  0  0  0  0  0  0  0  0  0
    8.2523   -5.6100    0.0000 C   0  0  0  0  0  0  0  0  0  0  0  0
    7.5378   -5.1975    0.0000 C   0  0  0  0  0  0  0  0  0  0  0  0
    6.8233   -5.6100    0.0000 C   0  0  0  0  0  0  0  0  0  0  0  0
    8.9668   -6.8475    0.0000 C   0  0  0  0  0  0  0  0  0  0  0  0
    9.6812   -6.4350    0.0000 C   0  0  0  0  0  0  0  0  0  0  0  0
    9.6812   -5.6100    0.0000 C   0  0  2  0  0  0  0  0  0  0  0  0
    8.9668   -5.1975    0.0000 C   0  0  0  0  0  0  0  0  0  0  0  0
   10.3957   -5.1975    0.0000 C   0  0  0  0  0  0  0  0  0  0  0  0
   10.3957   -4.3725    0.0000 C   0  0  0  0  0  0  0  0  0  0  0  0
    9.6812   -3.9600    0.0000 C   0  0  1  0  0  0  0  0  0  0  0  0
    8.9668   -4.3725    0.0000 C   0  0  0  0  0  0  0  0  0  0  0  0
    3.9655   -6.4350    0.0000 O   0  0  0  0  0  0  0  0  0  0  0  0
    3.9655   -8.0850    0.0000 O   0  0  0  0  0  0  0  0  0  0  0  0
    4.9819   -8.7995    0.0000 C   0  0  0  0  0  0  0  0  0  0  0  0
    6.1089   -6.0225    0.0000 C   0  0  0  0  0  0  0  0  0  0  0  0
    7.5378   -6.0225    0.0000 C   0  0  0  0  0  0  0  0  0  0  0  0
   10.3957   -6.0225    0.0000 C   0  0  0  0  0  0  0  0  0  0  0  0
    9.2687   -3.2455    0.0000 C   0  0  0  0  0  0  0  0  0  0  0  0
    5.8069   -8.7995    0.0000 C   0  0  0  0  0  0  0  0  0  0  0  0
    8.2523   -7.2600    0.0000 C   0  0  0  0  0  0  0  0  0  0  0  0
   10.0937   -3.2455    0.0000 C   0  0  0  0  0  0  0  0  0  0  0  0
   11.1102   -5.6100    0.0000 O   0  0  0  0  0  0  0  0  0  0  0  0
   10.3957   -6.8475    0.0000 O   0  0  0  0  0  0  0  0  0  0  0  0
    3.2510   -7.6725    0.0000 C   0  0  2  0  0  0  0  0  0  0  0  0
    3.2510   -6.8475    0.0000 O   0  0  0  0  0  0  0  0  0  0  0  0
    2.5365   -6.4350    0.0000 C   0  0  1  0  0  0  0  0  0  0  0  0
    1.8220   -6.8475    0.0000 C   0  0  2  0  0  0  0  0  0  0  0  0
    1.8220   -7.6725    0.0000 C   0  0  1  0  0  0  0  0  0  0  0  0
    2.5365   -8.0850    0.0000 C   0  0  1  0  0  0  0  0  0  0  0  0
    2.5365   -5.6100    0.0000 C   0  0  0  0  0  0  0  0  0  0  0  0
    1.1076   -8.0850    0.0000 O   0  0  0  0  0  0  0  0  0  0  0  0
    1.8220   -5.1975    0.0000 O   0  0  0  0  0  0  0  0  0  0  0  0
    1.1076   -6.4350    0.0000 O   0  0  0  0  0  0  0  0  0  0  0  0
    2.5365   -8.9100    0.0000 O   0  0  0  0  0  0  0  0  0  0  0  0
    6.6319   -8.7995    0.0000 O   0  0  0  0  0  0  0  0  0  0  0  0
    8.7591   -8.2843    0.0000 C   0  0  2  0  0  0  0  0  0  0  0  0
    9.1758   -8.9963    0.0000 C   0  0  2  0  0  0  0  0  0  0  0  0
   10.0008   -8.9915    0.0000 C   0  0  1  0  0  0  0  0  0  0  0  0
   10.4091   -8.2746    0.0000 C   0  0  2  0  0  0  0  0  0  0  0  0
    9.9923   -7.5626    0.0000 C   0  0  1  0  0  0  0  0  0  0  0  0
    9.1674   -7.5674    0.0000 O   0  0  0  0  0  0  0  0  0  0  0  0
    7.9341   -8.2892    0.0000 C   0  0  0  0  0  0  0  0  0  0  0  0
   10.4175   -9.7035    0.0000 O   0  0  0  0  0  0  0  0  0  0  0  0
    8.7675   -9.7132    0.0000 O   0  0  0  0  0  0  0  0  0  0  0  0
   11.2340   -8.2697    0.0000 O   0  0  0  0  0  0  0  0  0  0  0  0
    7.5258   -9.0061    0.0000 O   0  0  0  0  0  0  0  0  0  0  0  0
   11.6453  -10.4252    0.0000 C   0  0  1  0  0  0  0  0  0  0  0  0
   12.4703  -10.4234    0.0000 C   0  0  1  0  0  0  0  0  0  0  0  0
   12.8812   -9.7080    0.0000 C   0  0  2  0  0  0  0  0  0  0  0  0
   12.4671   -8.9944    0.0000 C   0  0  2  0  0  0  0  0  0  0  0  0
   11.6421   -8.9963    0.0000 C   0  0  1  0  0  0  0  0  0  0  0  0
   11.2312   -9.7117    0.0000 O   0  0  0  0  0  0  0  0  0  0  0  0
   12.8844  -11.1369    0.0000 O   0  0  0  0  0  0  0  0  0  0  0  0
   11.2344  -11.1406    0.0000 C   0  0  0  0  0  0  0  0  0  0  0  0
   13.7062   -9.7061    0.0000 O   0  0  0  0  0  0  0  0  0  0  0  0
   12.8780   -8.2791    0.0000 O   0  0  0  0  0  0  0  0  0  0  0  0
   11.2477  -12.5633    0.0000 C   0  0  0  0  0  0  0  0  0  0  0  0
   11.6645  -13.2753    0.0000 C   0  0  2  0  0  0  0  0  0  0  0  0
   12.4894  -13.2704    0.0000 C   0  0  1  0  0  0  0  0  0  0  0  0
   12.8977  -12.5535    0.0000 C   0  0  2  0  0  0  0  0  0  0  0  0
   12.4810  -11.8415    0.0000 C   0  0  1  0  0  0  0  0  0  0  0  0
   11.6560  -11.8464    0.0000 O   0  0  0  0  0  0  0  0  0  0  0  0
   12.9062  -13.9824    0.0000 O   0  0  0  0  0  0  0  0  0  0  0  0
   11.2562  -13.9922    0.0000 O   0  0  0  0  0  0  0  0  0  0  0  0
   13.7227  -12.5486    0.0000 O   0  0  0  0  0  0  0  0  0  0  0  0
  1  2  1  0  0  0  0
  2  3  1  0  0  0  0
  3  4  1  0  0  0  0
  4  5  1  0  0  0  0
  5  6  1  0  0  0  0
  6  1  1  0  0  0  0
  4  7  1  0  0  0  0
  7  8  1  0  0  0  0
  8  9  1  0  0  0  0
  9 10  1  0  0  0  0
 10  5  1  0  0  0  0
  9 11  1  0  0  0  0
 11 12  1  0  0  0  0
 12 13  2  0  0  0  0
 13 14  1  0  0  0  0
 14 10  1  0  0  0  0
 11 15  1  0  0  0  0
 15 16  1  0  0  0  0
 16 17  1  0  0  0  0
 17 18  1  0  0  0  0
 18 12  1  0  0  0  0
 17 19  1  0  0  0  0
 19 20  1  0  0  0  0
 20 21  1  0  0  0  0
 21 22  1  0  0  0  0
 22 18  1  0  0  0  0
  1 23  1  1  0  0  0
  2 24  1  1  0  0  0
  3 25  1  1  0  0  0
  5 26  1  1  0  0  0
  9 27  1  1  0  0  0
 17 28  1  1  0  0  0
 21 29  1  1  0  0  0
  3 30  1  6  0  0  0
 11 31  1  6  0  0  0
 21 32  1  6  0  0  0
 28 33  2  0  0  0  0
 28 34  1  0  0  0  0
 35 24  1  1  0  0  0
 35 36  1  0  0  0  0
 36 37  1  0  0  0  0
 37 38  1  0  0  0  0
 38 39  1  0  0  0  0
 39 40  1  0  0  0  0
 40 35  1  0  0  0  0
 37 41  1  1  0  0  0
 39 42  1  1  0  0  0
 41 43  1  0  0  0  0
 38 44  1  6  0  0  0
 40 45  1  6  0  0  0
 30 46  1  0  0  0  0
 47 48  1  0  0  0  0
 48 49  1  0  0  0  0
 49 50  1  0  0  0  0
 50 51  1  0  0  0  0
 51 52  1  0  0  0  0
 52 47  1  0  0  0  0
 47 53  1  1  0  0  0
 49 54  1  1  0  0  0
 48 55  1  6  0  0  0
 50 56  1  6  0  0  0
 53 57  1  0  0  0  0
 58 59  1  0  0  0  0
 59 60  1  0  0  0  0
 60 61  1  0  0  0  0
 61 62  1  0  0  0  0
 62 63  1  0  0  0  0
 63 58  1  0  0  0  0
 59 64  1  1  0  0  0
 58 65  1  6  0  0  0
 60 66  1  6  0  0  0
 61 67  1  6  0  0  0
 68 69  1  0  0  0  0
 69 70  1  0  0  0  0
 70 71  1  0  0  0  0
 71 72  1  0  0  0  0
 72 73  1  0  0  0  0
 73 68  1  0  0  0  0
 70 74  1  1  0  0  0
 69 75  1  6  0  0  0
 71 76  1  6  0  0  0
 62 56  1  1  0  0  0
 72 64  1  1  0  0  0
 51 34  1  1  0  0  0
M  END
>  <cdx:fragmentId>
5

$$$$
