98690.cdx
  Mrv1902 05222410202D          

 55 58  0  0  0  0            999 V2000
    7.9169   -9.9426    0.0000 C   0  0  2  0  0  0  0  0  0  0  0  0
    7.9169  -10.7674    0.0000 C   0  0  2  0  0  0  0  0  0  0  0  0
    8.6312  -11.1798    0.0000 C   0  0  1  0  0  0  0  0  0  0  0  0
    9.3454  -10.7674    0.0000 C   0  0  2  0  0  0  0  0  0  0  0  0
    9.3454   -9.9426    0.0000 C   0  0  2  0  0  0  0  0  0  0  0  0
    8.6312   -9.5303    0.0000 O   0  0  0  0  0  0  0  0  0  0  0  0
    7.2027   -9.5303    0.0000 C   0  0  0  0  0  0  0  0  0  0  0  0
    8.6312  -12.0045    0.0000 O   0  0  0  0  0  0  0  0  0  0  0  0
    7.2027  -11.1798    0.0000 O   0  0  0  0  0  0  0  0  0  0  0  0
   10.0597  -11.1798    0.0000 O   0  0  0  0  0  0  0  0  0  0  0  0
    6.4884   -9.9426    0.0000 O   0  0  0  0  0  0  0  0  0  0  0  0
   12.2563   -7.2733    0.0000 O   0  0  0  0  0  0  0  0  0  0  0  0
   12.2515   -8.0980    0.0000 C   0  0  0  0  0  0  0  0  0  0  0  0
   12.9633   -8.5145    0.0000 C   0  0  0  0  0  0  0  0  0  0  0  0
   13.6800   -8.1063    0.0000 C   0  0  0  0  0  0  0  0  0  0  0  0
   16.5417   -7.2982    0.0000 C   0  0  0  0  0  0  0  0  0  0  0  0
   16.5369   -8.1229    0.0000 O   0  0  0  0  0  0  0  0  0  0  0  0
   17.2439   -9.3641    0.0000 C   0  0  0  0  0  0  0  0  0  0  0  0
   16.5273   -9.7724    0.0000 O   0  0  0  0  0  0  0  0  0  0  0  0
   14.3774  -10.9970    0.0000 C   0  0  0  0  0  0  0  0  0  0  0  0
   15.0940  -10.5888    0.0000 O   0  0  0  0  0  0  0  0  0  0  0  0
    3.6697  -10.7491    0.0000 C   0  0  0  0  0  0  0  0  0  0  0  0
    3.6691   -9.9243    0.0000 C   0  0  0  0  0  0  0  0  0  0  0  0
    2.9546   -9.5125    0.0000 C   0  0  0  0  0  0  0  0  0  0  0  0
    2.2407   -9.9253    0.0000 C   0  0  0  0  0  0  0  0  0  0  0  0
    2.2412  -10.7501    0.0000 C   0  0  0  0  0  0  0  0  0  0  0  0
    2.9558  -11.1619    0.0000 C   0  0  0  0  0  0  0  0  0  0  0  0
    2.9563  -11.9867    0.0000 O   0  0  0  0  0  0  0  0  0  0  0  0
    3.6709  -12.3986    0.0000 C   0  0  0  0  0  0  0  0  0  0  0  0
    1.5273  -11.1629    0.0000 O   0  0  0  0  0  0  0  0  0  0  0  0
    0.8127  -10.7510    0.0000 C   0  0  0  0  0  0  0  0  0  0  0  0
    1.5261   -9.5134    0.0000 O   0  0  0  0  0  0  0  0  0  0  0  0
    1.5256   -8.6887    0.0000 C   0  0  0  0  0  0  0  0  0  0  0  0
    4.3831   -9.5115    0.0000 C   0  0  0  0  0  0  0  0  0  0  0  0
    5.0976   -9.9233    0.0000 C   0  0  0  0  0  0  0  0  0  0  0  0
    5.8116   -9.5105    0.0000 C   0  0  0  0  0  0  0  0  0  0  0  0
    5.8110   -8.6857    0.0000 O   0  0  0  0  0  0  0  0  0  0  0  0
   15.0988   -9.7641    0.0000 C   0  0  0  0  0  0  0  0  0  0  0  0
   15.8155   -9.3558    0.0000 C   0  0  0  0  0  0  0  0  0  0  0  0
   15.8203   -8.5311    0.0000 C   0  0  0  0  0  0  0  0  0  0  0  0
   15.1084   -8.1146    0.0000 C   0  0  0  0  0  0  0  0  0  0  0  0
   14.3918   -8.5228    0.0000 C   0  0  0  0  0  0  0  0  0  0  0  0
   14.3870   -9.3476    0.0000 C   0  0  0  0  0  0  0  0  0  0  0  0
   10.7739   -9.9426    0.0000 O   0  0  0  0  0  0  0  0  0  0  0  0
   10.7739   -9.1179    0.0000 C   0  0  0  0  0  0  0  0  0  0  0  0
    8.3423   -6.8554    0.0000 O   0  0  0  0  0  0  0  0  0  0  0  0
   10.9568   -6.7692    0.0000 O   0  0  0  0  0  0  0  0  0  0  0  0
   11.5113   -8.4756    0.0000 O   0  0  0  0  0  0  0  0  0  0  0  0
    9.1625   -6.7692    0.0000 C   0  0  0  0  0  0  0  0  0  0  0  0
   10.7269   -8.2208    0.0000 C   0  0  1  0  0  0  0  0  0  0  0  0
   10.4720   -7.4364    0.0000 C   0  0  1  0  0  0  0  0  0  0  0  0
    9.6473   -7.4364    0.0000 C   0  0  2  0  0  0  0  0  0  0  0  0
    9.3925   -8.2208    0.0000 O   0  0  0  0  0  0  0  0  0  0  0  0
   10.0597   -8.7055    0.0000 C   0  0  2  0  0  0  0  0  0  0  0  0
   10.0597   -9.5303    0.0000 O   0  0  0  0  0  0  0  0  0  0  0  0
  1  2  1  0  0  0  0
  2  3  1  0  0  0  0
  3  4  1  0  0  0  0
  4  5  1  0  0  0  0
  5  6  1  0  0  0  0
  6  1  1  0  0  0  0
  1  7  1  1  0  0  0
  3  8  1  1  0  0  0
  2  9  1  6  0  0  0
  4 10  1  6  0  0  0
 13 48  1  0  0  0  0
  5 55  1  6  0  0  0
  7 11  1  0  0  0  0
 13 12  2  0  0  0  0
 14 13  1  0  0  0  0
 15 14  2  0  0  0  0
 42 15  1  0  0  0  0
 17 16  1  0  0  0  0
 40 17  1  0  0  0  0
 19 18  1  0  0  0  0
 39 19  1  0  0  0  0
 21 20  1  0  0  0  0
 38 21  1  0  0  0  0
 38 43  1  0  0  0  0
 39 38  2  0  0  0  0
 40 39  1  0  0  0  0
 22 23  2  0  0  0  0
 23 24  1  0  0  0  0
 24 25  2  0  0  0  0
 25 26  1  0  0  0  0
 26 27  2  0  0  0  0
 27 22  1  0  0  0  0
 27 28  1  0  0  0  0
 28 29  1  0  0  0  0
 26 30  1  0  0  0  0
 30 31  1  0  0  0  0
 25 32  1  0  0  0  0
 32 33  1  0  0  0  0
 23 34  1  0  0  0  0
 34 35  2  0  0  0  0
 35 36  1  0  0  0  0
 36 37  2  0  0  0  0
 41 40  2  0  0  0  0
 42 41  1  0  0  0  0
 43 42  2  0  0  0  0
 45 44  1  0  0  0  0
 54 45  1  1  0  0  0
 49 46  1  0  0  0  0
 51 47  1  1  0  0  0
 50 48  1  6  0  0  0
 52 49  1  6  0  0  0
 50 54  1  0  0  0  0
 51 50  1  0  0  0  0
 52 51  1  0  0  0  0
 53 52  1  0  0  0  0
 54 53  1  0  0  0  0
 54 55  1  6  0  0  0
 36 11  1  0  0  0  0
M  END
>  <cdx:fragmentId>
5

$$$$
