98695.cdx
  Mrv1902 05222410182D          

 70 78  0  0  0  0            999 V2000
    7.6224  -11.1100    0.0000 C   0  0  0  0  0  0  0  0  0  0  0  0
    7.6224  -11.9350    0.0000 C   0  0  1  0  0  0  0  0  0  0  0  0
    8.3369  -12.3475    0.0000 C   0  0  0  0  0  0  0  0  0  0  0  0
    9.0514  -11.9350    0.0000 C   0  0  1  0  0  0  0  0  0  0  0  0
    9.0514  -11.1100    0.0000 C   0  0  2  0  0  0  0  0  0  0  0  0
    8.3369  -10.6975    0.0000 C   0  0  0  0  0  0  0  0  0  0  0  0
    9.7658  -12.3475    0.0000 C   0  0  0  0  0  0  0  0  0  0  0  0
   10.4803  -11.9350    0.0000 C   0  0  0  0  0  0  0  0  0  0  0  0
   10.4803  -11.1100    0.0000 C   0  0  2  0  0  0  0  0  0  0  0  0
    9.7658  -10.6975    0.0000 C   0  0  0  0  0  0  0  0  0  0  0  0
   11.1948  -10.6975    0.0000 C   0  0  2  0  0  0  0  0  0  0  0  0
   11.1948   -9.8725    0.0000 C   0  0  2  0  0  0  0  0  0  0  0  0
   10.4803   -9.4600    0.0000 C   0  0  1  0  0  0  0  0  0  0  0  0
    9.7658   -9.8725    0.0000 C   0  0  1  0  0  0  0  0  0  0  0  0
   12.6237  -10.6975    0.0000 C   0  0  0  0  0  0  0  0  0  0  0  0
   12.6237   -9.8725    0.0000 C   0  0  0  0  0  0  0  0  0  0  0  0
   11.9093   -9.4600    0.0000 C   0  0  1  0  0  0  0  0  0  0  0  0
   11.9093   -8.6350    0.0000 C   0  0  0  0  0  0  0  0  0  0  0  0
   11.1948   -8.2225    0.0000 C   0  0  0  0  0  0  0  0  0  0  0  0
   12.6237   -8.2225    0.0000 O   0  0  0  0  0  0  0  0  0  0  0  0
    6.9080  -12.3475    0.0000 O   0  0  0  0  0  0  0  0  0  0  0  0
    9.0514  -10.2850    0.0000 C   0  0  0  0  0  0  0  0  0  0  0  0
   11.1948  -11.5225    0.0000 O   0  0  0  0  0  0  0  0  0  0  0  0
   10.4803   -8.6350    0.0000 O   0  0  0  0  0  0  0  0  0  0  0  0
   11.1948   -9.0475    0.0000 C   0  0  0  0  0  0  0  0  0  0  0  0
    9.0514  -12.7600    0.0000 H   0  0  0  0  0  0  0  0  0  0  0  0
    9.0514   -9.4600    0.0000 O   0  0  0  0  0  0  0  0  0  0  0  0
    9.0514   -8.6350    0.0000 C   0  0  0  0  0  0  0  0  0  0  0  0
    8.3369   -8.2225    0.0000 C   0  0  0  0  0  0  0  0  0  0  0  0
    9.7658   -8.2225    0.0000 O   0  0  0  0  0  0  0  0  0  0  0  0
    8.3369   -7.3975    0.0000 C   0  0  0  0  0  0  0  0  0  0  0  0
    7.6224   -6.9850    0.0000 C   0  0  0  0  0  0  0  0  0  0  0  0
    6.9080   -7.3975    0.0000 C   0  0  0  0  0  0  0  0  0  0  0  0
    6.9080   -8.2225    0.0000 C   0  0  0  0  0  0  0  0  0  0  0  0
    7.6224   -8.6350    0.0000 C   0  0  0  0  0  0  0  0  0  0  0  0
   10.4803   -7.8100    0.0000 C   0  0  0  0  0  0  0  0  0  0  0  0
   11.1948   -7.3975    0.0000 O   0  0  0  0  0  0  0  0  0  0  0  0
    9.7658   -7.3975    0.0000 C   0  0  0  0  0  0  0  0  0  0  0  0
    5.4900  -10.6949    0.0000 C   0  0  2  0  0  0  0  0  0  0  0  0
    4.7745  -11.1057    0.0000 C   0  0  2  0  0  0  0  0  0  0  0  0
    4.7724  -11.9307    0.0000 C   0  0  1  0  0  0  0  0  0  0  0  0
    5.4859  -12.3449    0.0000 C   0  0  0  0  0  0  0  0  0  0  0  0
    6.2014  -11.9342    0.0000 C   0  0  1  0  0  0  0  0  0  0  0  0
    6.2034  -11.1092    0.0000 O   0  0  0  0  0  0  0  0  0  0  0  0
    5.4920   -9.8699    0.0000 C   0  0  0  0  0  0  0  0  0  0  0  0
    4.0611  -10.6914    0.0000 O   0  0  0  0  0  0  0  0  0  0  0  0
    4.0569  -12.3414    0.0000 O   0  0  0  0  0  0  0  0  0  0  0  0
    4.0549  -13.1664    0.0000 C   0  0  0  0  0  0  0  0  0  0  0  0
    4.0631   -9.8664    0.0000 C   0  0  2  0  0  0  0  0  0  0  0  0
    4.7786   -9.4557    0.0000 O   0  0  0  0  0  0  0  0  0  0  0  0
    4.7807   -8.6307    0.0000 C   0  0  1  0  0  0  0  0  0  0  0  0
    4.0672   -8.2164    0.0000 C   0  0  2  0  0  0  0  0  0  0  0  0
    3.3517   -8.6271    0.0000 C   0  0  2  0  0  0  0  0  0  0  0  0
    3.3497   -9.4521    0.0000 C   0  0  1  0  0  0  0  0  0  0  0  0
    5.4962   -8.2199    0.0000 C   0  0  0  0  0  0  0  0  0  0  0  0
    4.0693   -7.3914    0.0000 O   0  0  0  0  0  0  0  0  0  0  0  0
    2.6383   -8.2128    0.0000 O   0  0  0  0  0  0  0  0  0  0  0  0
    1.9228   -8.6235    0.0000 C   0  0  0  0  0  0  0  0  0  0  0  0
    2.6342   -9.8628    0.0000 O   0  0  0  0  0  0  0  0  0  0  0  0
    3.6537   -6.6787    0.0000 C   0  0  2  0  0  0  0  0  0  0  0  0
    4.0631   -5.9625    0.0000 O   0  0  0  0  0  0  0  0  0  0  0  0
    3.6475   -5.2498    0.0000 C   0  0  1  0  0  0  0  0  0  0  0  0
    2.8225   -5.2533    0.0000 C   0  0  2  0  0  0  0  0  0  0  0  0
    2.4131   -5.9696    0.0000 C   0  0  1  0  0  0  0  0  0  0  0  0
    2.8287   -6.6823    0.0000 C   0  0  1  0  0  0  0  0  0  0  0  0
    4.0569   -4.5335    0.0000 C   0  0  0  0  0  0  0  0  0  0  0  0
    1.5881   -5.9732    0.0000 O   0  0  0  0  0  0  0  0  0  0  0  0
    2.4070   -4.5407    0.0000 O   0  0  0  0  0  0  0  0  0  0  0  0
    2.4193   -7.3985    0.0000 O   0  0  0  0  0  0  0  0  0  0  0  0
    4.8819   -4.5300    0.0000 O   0  0  0  0  0  0  0  0  0  0  0  0
  1  2  1  0  0  0  0
  2  3  1  0  0  0  0
  3  4  1  0  0  0  0
  4  5  1  0  0  0  0
  5  6  1  0  0  0  0
  6  1  1  0  0  0  0
  4  7  1  0  0  0  0
  7  8  1  0  0  0  0
  8  9  1  0  0  0  0
  9 10  1  0  0  0  0
 10  5  1  0  0  0  0
  9 11  1  0  0  0  0
 11 12  1  0  0  0  0
 12 13  1  0  0  0  0
 13 14  1  0  0  0  0
 14 10  1  0  0  0  0
 15 16  1  0  0  0  0
 16 17  1  0  0  0  0
 17 12  1  0  0  0  0
 11 15  1  0  0  0  0
 17 18  1  6  0  0  0
 18 19  1  0  0  0  0
 18 20  2  0  0  0  0
  2 21  1  1  0  0  0
  5 22  1  1  0  0  0
  9 23  1  1  0  0  0
 11 23  1  1  0  0  0
 13 24  1  1  0  0  0
 12 25  1  1  0  0  0
  4 26  1  6  0  0  0
 14 27  1  6  0  0  0
 27 28  1  0  0  0  0
 28 29  1  0  0  0  0
 28 30  2  0  0  0  0
 29 31  2  0  0  0  0
 31 32  1  0  0  0  0
 32 33  2  0  0  0  0
 33 34  1  0  0  0  0
 34 35  2  0  0  0  0
 35 29  1  0  0  0  0
 24 36  1  0  0  0  0
 36 37  2  0  0  0  0
 36 38  1  0  0  0  0
 39 40  1  0  0  0  0
 40 41  1  0  0  0  0
 41 42  1  0  0  0  0
 42 43  1  0  0  0  0
 43 44  1  0  0  0  0
 44 39  1  0  0  0  0
 39 45  1  1  0  0  0
 40 46  1  6  0  0  0
 41 47  1  1  0  0  0
 47 48  1  0  0  0  0
 49 46  1  1  0  0  0
 49 50  1  0  0  0  0
 50 51  1  0  0  0  0
 51 52  1  0  0  0  0
 52 53  1  0  0  0  0
 53 54  1  0  0  0  0
 54 49  1  0  0  0  0
 51 55  1  1  0  0  0
 52 56  1  6  0  0  0
 53 57  1  6  0  0  0
 57 58  1  0  0  0  0
 54 59  1  6  0  0  0
 60 56  1  1  0  0  0
 60 61  1  0  0  0  0
 61 62  1  0  0  0  0
 62 63  1  0  0  0  0
 63 64  1  0  0  0  0
 64 65  1  0  0  0  0
 65 60  1  0  0  0  0
 62 66  1  1  0  0  0
 64 67  1  1  0  0  0
 63 68  1  6  0  0  0
 65 69  1  6  0  0  0
 66 70  1  0  0  0  0
 43 21  1  1  0  0  0
M  END
>  <cdx:fragmentId>
5

$$$$
