98692.cdx
  Mrv1902 05222410192D          

 86 95  0  0  0  0            999 V2000
    3.8142   -7.2684    0.0000 C   0  0  2  0  0  0  0  0  0  0  0  0
    3.8142   -7.9284    0.0000 C   0  0  1  0  0  0  0  0  0  0  0  0
    4.3858   -8.2584    0.0000 C   0  0  1  0  0  0  0  0  0  0  0  0
    4.9574   -7.9284    0.0000 C   0  0  0  0  0  0  0  0  0  0  0  0
    4.9574   -7.2684    0.0000 C   0  0  2  0  0  0  0  0  0  0  0  0
    4.3858   -6.9384    0.0000 C   0  0  0  0  0  0  0  0  0  0  0  0
    5.5289   -8.2584    0.0000 C   0  0  0  0  0  0  0  0  0  0  0  0
    6.1005   -7.9284    0.0000 C   0  0  0  0  0  0  0  0  0  0  0  0
    6.1005   -7.2684    0.0000 C   0  0  2  0  0  0  0  0  0  0  0  0
    5.5289   -6.9384    0.0000 C   0  0  0  0  0  0  0  0  0  0  0  0
    6.6721   -6.9384    0.0000 C   0  0  1  0  0  0  0  0  0  0  0  0
    6.6721   -6.2784    0.0000 C   0  0  0  0  0  0  0  0  0  0  0  0
    6.1005   -5.9484    0.0000 C   0  0  0  0  0  0  0  0  0  0  0  0
    5.5289   -6.2784    0.0000 C   0  0  0  0  0  0  0  0  0  0  0  0
    7.2437   -7.2684    0.0000 C   0  0  0  0  0  0  0  0  0  0  0  0
    7.8152   -6.9384    0.0000 C   0  0  0  0  0  0  0  0  0  0  0  0
    7.8152   -6.2784    0.0000 C   0  0  2  0  0  0  0  0  0  0  0  0
    7.2437   -5.9484    0.0000 C   0  0  0  0  0  0  0  0  0  0  0  0
    8.3868   -5.9484    0.0000 C   0  0  0  0  0  0  0  0  0  0  0  0
    8.3868   -5.2884    0.0000 C   0  0  0  0  0  0  0  0  0  0  0  0
    7.8152   -4.9584    0.0000 C   0  0  1  0  0  0  0  0  0  0  0  0
    7.2437   -5.2884    0.0000 C   0  0  0  0  0  0  0  0  0  0  0  0
    3.2426   -6.9384    0.0000 O   0  0  0  0  0  0  0  0  0  0  0  0
    3.2426   -8.2584    0.0000 O   0  0  0  0  0  0  0  0  0  0  0  0
    4.0558   -8.8299    0.0000 C   0  0  0  0  0  0  0  0  0  0  0  0
    4.9574   -6.6084    0.0000 C   0  0  0  0  0  0  0  0  0  0  0  0
    6.1005   -6.6084    0.0000 C   0  0  0  0  0  0  0  0  0  0  0  0
    8.3868   -6.6084    0.0000 C   0  0  0  0  0  0  0  0  0  0  0  0
    7.4852   -4.3868    0.0000 C   0  0  0  0  0  0  0  0  0  0  0  0
    4.7158   -8.8299    0.0000 C   0  0  0  0  0  0  0  0  0  0  0  0
    6.6721   -7.5984    0.0000 C   0  0  0  0  0  0  0  0  0  0  0  0
    8.1452   -4.3868    0.0000 C   0  0  0  0  0  0  0  0  0  0  0  0
    8.9584   -6.2784    0.0000 O   0  0  0  0  0  0  0  0  0  0  0  0
    8.3868   -7.2684    0.0000 O   0  0  0  0  0  0  0  0  0  0  0  0
    2.6711   -7.9284    0.0000 C   0  0  2  0  0  0  0  0  0  0  0  0
    2.6711   -7.2684    0.0000 O   0  0  0  0  0  0  0  0  0  0  0  0
    2.0995   -6.9384    0.0000 C   0  0  1  0  0  0  0  0  0  0  0  0
    1.5279   -7.2684    0.0000 C   0  0  2  0  0  0  0  0  0  0  0  0
    1.5279   -7.9284    0.0000 C   0  0  1  0  0  0  0  0  0  0  0  0
    2.0995   -8.2584    0.0000 C   0  0  1  0  0  0  0  0  0  0  0  0
    2.0995   -6.2784    0.0000 C   0  0  0  0  0  0  0  0  0  0  0  0
    0.9563   -8.2584    0.0000 O   0  0  0  0  0  0  0  0  0  0  0  0
    1.5279   -5.9484    0.0000 O   0  0  0  0  0  0  0  0  0  0  0  0
    0.9563   -6.9384    0.0000 O   0  0  0  0  0  0  0  0  0  0  0  0
    2.0995   -8.9184    0.0000 O   0  0  0  0  0  0  0  0  0  0  0  0
    5.3758   -8.8299    0.0000 O   0  0  0  0  0  0  0  0  0  0  0  0
    7.0775   -8.4178    0.0000 C   0  0  2  0  0  0  0  0  0  0  0  0
    7.4109   -8.9874    0.0000 C   0  0  2  0  0  0  0  0  0  0  0  0
    8.0709   -8.9835    0.0000 C   0  0  1  0  0  0  0  0  0  0  0  0
    8.3975   -8.4100    0.0000 C   0  0  2  0  0  0  0  0  0  0  0  0
    8.0641   -7.8404    0.0000 C   0  0  1  0  0  0  0  0  0  0  0  0
    7.4041   -7.8443    0.0000 O   0  0  0  0  0  0  0  0  0  0  0  0
    6.4175   -8.4217    0.0000 C   0  0  0  0  0  0  0  0  0  0  0  0
    8.4043   -9.5531    0.0000 O   0  0  0  0  0  0  0  0  0  0  0  0
    7.0843   -9.5610    0.0000 O   0  0  0  0  0  0  0  0  0  0  0  0
    9.0575   -8.4061    0.0000 O   0  0  0  0  0  0  0  0  0  0  0  0
    6.0909   -8.9952    0.0000 O   0  0  0  0  0  0  0  0  0  0  0  0
    9.3865  -10.1305    0.0000 C   0  0  1  0  0  0  0  0  0  0  0  0
   10.0465  -10.1291    0.0000 C   0  0  1  0  0  0  0  0  0  0  0  0
   10.3753   -9.5568    0.0000 C   0  0  2  0  0  0  0  0  0  0  0  0
   10.0440   -8.9859    0.0000 C   0  0  2  0  0  0  0  0  0  0  0  0
    9.3840   -8.9874    0.0000 C   0  0  1  0  0  0  0  0  0  0  0  0
    9.0553   -9.5597    0.0000 O   0  0  0  0  0  0  0  0  0  0  0  0
   10.3778  -10.6999    0.0000 O   0  0  0  0  0  0  0  0  0  0  0  0
    9.0578  -10.7029    0.0000 C   0  0  0  0  0  0  0  0  0  0  0  0
   11.0353   -9.5553    0.0000 O   0  0  0  0  0  0  0  0  0  0  0  0
   10.3727   -8.4136    0.0000 O   0  0  0  0  0  0  0  0  0  0  0  0
    9.0685  -11.8410    0.0000 C   0  0  0  0  0  0  0  0  0  0  0  0
    9.4018  -12.4106    0.0000 C   0  0  2  0  0  0  0  0  0  0  0  0
   10.0618  -12.4067    0.0000 C   0  0  1  0  0  0  0  0  0  0  0  0
   10.3884  -11.8332    0.0000 C   0  0  2  0  0  0  0  0  0  0  0  0
   10.0551  -11.2635    0.0000 C   0  0  1  0  0  0  0  0  0  0  0  0
    9.3951  -11.2674    0.0000 O   0  0  0  0  0  0  0  0  0  0  0  0
   10.3952  -12.9763    0.0000 O   0  0  0  0  0  0  0  0  0  0  0  0
    9.0752  -12.9841    0.0000 O   0  0  0  0  0  0  0  0  0  0  0  0
   11.0484  -11.8293    0.0000 O   0  0  0  0  0  0  0  0  0  0  0  0
    4.3858   -9.4015    0.0000 O   0  0  0  0  0  0  0  0  0  0  0  0
   11.2070  -10.7002    0.0000 O   0  0  0  0  0  0  0  0  0  0  0  0
   11.7365  -11.0941    0.0000 C   0  0  0  0  0  0  0  0  0  0  0  0
   12.2748  -10.7121    0.0000 C   0  0  2  0  0  0  0  0  0  0  0  0
   12.0779  -10.0822    0.0000 C   0  0  2  0  0  0  0  0  0  0  0  0
   11.4179  -10.0748    0.0000 C   0  0  2  0  0  0  0  0  0  0  0  0
   12.4717   -9.5526    0.0000 O   0  0  0  0  0  0  0  0  0  0  0  0
   12.8807  -10.4504    0.0000 O   0  0  0  0  0  0  0  0  0  0  0  0
   12.8044  -11.1060    0.0000 C   0  0  0  0  0  0  0  0  0  0  0  0
   12.7281  -11.7616    0.0000 O   0  0  0  0  0  0  0  0  0  0  0  0
  1  2  1  0  0  0  0
  2  3  1  0  0  0  0
  3  4  1  0  0  0  0
  4  5  1  0  0  0  0
  5  6  1  0  0  0  0
  6  1  1  0  0  0  0
  4  7  1  0  0  0  0
  7  8  1  0  0  0  0
  8  9  1  0  0  0  0
  9 10  1  0  0  0  0
 10  5  1  0  0  0  0
  9 11  1  0  0  0  0
 11 12  1  0  0  0  0
 12 13  2  0  0  0  0
 13 14  1  0  0  0  0
 14 10  1  0  0  0  0
 11 15  1  0  0  0  0
 15 16  1  0  0  0  0
 16 17  1  0  0  0  0
 17 18  1  0  0  0  0
 18 12  1  0  0  0  0
 17 19  1  0  0  0  0
 19 20  1  0  0  0  0
 20 21  1  0  0  0  0
 21 22  1  0  0  0  0
 22 18  1  0  0  0  0
  1 23  1  1  0  0  0
  2 24  1  1  0  0  0
  3 25  1  1  0  0  0
  5 26  1  1  0  0  0
  9 27  1  1  0  0  0
 17 28  1  1  0  0  0
 21 29  1  1  0  0  0
  3 30  1  6  0  0  0
 11 31  1  6  0  0  0
 21 32  1  6  0  0  0
 28 33  2  0  0  0  0
 28 34  1  0  0  0  0
 35 24  1  1  0  0  0
 35 36  1  0  0  0  0
 36 37  1  0  0  0  0
 37 38  1  0  0  0  0
 38 39  1  0  0  0  0
 39 40  1  0  0  0  0
 40 35  1  0  0  0  0
 37 41  1  1  0  0  0
 39 42  1  1  0  0  0
 41 43  1  0  0  0  0
 38 44  1  6  0  0  0
 40 45  1  6  0  0  0
 30 46  1  0  0  0  0
 47 48  1  0  0  0  0
 48 49  1  0  0  0  0
 49 50  1  0  0  0  0
 50 51  1  0  0  0  0
 51 52  1  0  0  0  0
 52 47  1  0  0  0  0
 47 53  1  1  0  0  0
 49 54  1  1  0  0  0
 48 55  1  6  0  0  0
 50 56  1  6  0  0  0
 53 57  1  0  0  0  0
 58 59  1  0  0  0  0
 59 60  1  0  0  0  0
 60 61  1  0  0  0  0
 61 62  1  0  0  0  0
 62 63  1  0  0  0  0
 63 58  1  0  0  0  0
 59 64  1  1  0  0  0
 58 65  1  6  0  0  0
 60 66  1  6  0  0  0
 61 67  1  6  0  0  0
 68 69  1  0  0  0  0
 69 70  1  0  0  0  0
 70 71  1  0  0  0  0
 71 72  1  0  0  0  0
 72 73  1  0  0  0  0
 73 68  1  0  0  0  0
 70 74  1  1  0  0  0
 69 75  1  6  0  0  0
 71 76  1  6  0  0  0
 62 56  1  1  0  0  0
 72 64  1  1  0  0  0
 51 34  1  1  0  0  0
 30 77  2  0  0  0  0
 78 79  1  0  0  0  0
 79 80  1  0  0  0  0
 80 81  1  0  0  0  0
 81 82  1  0  0  0  0
 82 78  1  0  0  0  0
 81 83  1  6  0  0  0
 80 84  1  6  0  0  0
 80 85  1  1  0  0  0
 85 86  1  0  0  0  0
 82 66  1  1  0  0  0
M  END
>  <cdx:fragmentId>
5

$$$$
