98694.cdx
  Mrv1902 05222410182D          

 35 39  0  0  0  0            999 V2000
    3.9329  -10.6905    0.0000 C   0  0  1  0  0  0  0  0  0  0  0  0
    3.9329   -9.8655    0.0000 C   0  0  0  0  0  0  0  0  0  0  0  0
    4.6473   -9.4530    0.0000 C   0  0  0  0  0  0  0  0  0  0  0  0
    4.6473  -11.1030    0.0000 C   0  0  2  0  0  0  0  0  0  0  0  0
    5.0598  -11.8174    0.0000 C   0  0  0  0  0  0  0  0  0  0  0  0
    4.2348  -11.8174    0.0000 C   0  0  0  0  0  0  0  0  0  0  0  0
    5.3618  -10.6905    0.0000 C   0  0  2  0  0  0  0  0  0  0  0  0
    5.3618  -11.5155    0.0000 H   0  0  0  0  0  0  0  0  0  0  0  0
    6.0763  -11.1030    0.0000 C   0  0  0  0  0  0  0  0  0  0  0  0
    6.7908  -10.6905    0.0000 C   0  0  0  0  0  0  0  0  0  0  0  0
    6.7908   -9.8655    0.0000 C   0  0  0  0  0  0  0  0  0  0  0  0
    7.5052   -9.4530    0.0000 C   0  0  2  0  0  0  0  0  0  0  0  0
    7.5052  -10.2780    0.0000 C   0  0  0  0  0  0  0  0  0  0  0  0
    8.2899   -9.7079    0.0000 C   0  0  0  0  0  0  0  0  0  0  0  0
    8.7748   -9.0405    0.0000 C   0  0  0  0  0  0  0  0  0  0  0  0
    8.2899   -8.3730    0.0000 C   0  0  2  0  0  0  0  0  0  0  0  0
    8.5448   -7.5884    0.0000 C   0  0  1  0  0  0  0  0  0  0  0  0
    9.3518   -7.4169    0.0000 C   0  0  0  0  0  0  0  0  0  0  0  0
    9.6067   -6.6323    0.0000 C   0  0  0  0  0  0  0  0  0  0  0  0
   10.4137   -6.4607    0.0000 C   0  0  0  0  0  0  0  0  0  0  0  0
   10.6686   -5.6761    0.0000 C   0  0  0  0  0  0  0  0  0  0  0  0
   10.1166   -5.0630    0.0000 C   0  0  0  0  0  0  0  0  0  0  0  0
   11.4756   -5.5046    0.0000 C   0  0  0  0  0  0  0  0  0  0  0  0
    8.3733   -6.7814    0.0000 C   0  0  0  0  0  0  0  0  0  0  0  0
    7.5052   -8.6280    0.0000 C   0  0  2  0  0  0  0  0  0  0  0  0
    7.5052   -7.8030    0.0000 C   0  0  0  0  0  0  0  0  0  0  0  0
    6.7908   -8.2155    0.0000 C   0  0  0  0  0  0  0  0  0  0  0  0
    6.0763   -8.6280    0.0000 C   0  0  0  0  0  0  0  0  0  0  0  0
    6.0763   -9.4530    0.0000 C   0  0  1  0  0  0  0  0  0  0  0  0
    5.3618   -9.8655    0.0000 C   0  0  1  0  0  0  0  0  0  0  0  0
    5.3618   -9.0405    0.0000 C   0  0  0  0  0  0  0  0  0  0  0  0
    3.2184  -11.1030    0.0000 O   0  0  0  0  0  0  0  0  0  0  0  0
    7.7602   -7.3335    0.0000 O   0  0  0  0  0  0  0  0  0  0  0  0
   10.9657   -7.0738    0.0000 C   0  0  0  0  0  0  0  0  0  0  0  0
    9.0867   -8.1595    0.0000 H   0  0  0  0  0  0  0  0  0  0  0  0
  1  2  1  0  0  0  0
  2  3  1  0  0  0  0
  1  4  1  0  0  0  0
  4  5  1  6  0  0  0
  4  6  1  1  0  0  0
  4  7  1  0  0  0  0
  7  8  1  6  0  0  0
  7  9  1  0  0  0  0
  9 10  1  0  0  0  0
 10 11  2  0  0  0  0
 11 12  1  0  0  0  0
 12 13  1  6  0  0  0
 12 14  1  0  0  0  0
 14 15  1  0  0  0  0
 16 15  1  0  0  0  0
 16 17  1  0  0  0  0
 17 18  1  0  0  0  0
 18 19  1  0  0  0  0
 19 20  1  0  0  0  0
 20 21  1  0  0  0  0
 21 22  1  0  0  0  0
 21 23  1  0  0  0  0
 17 24  1  6  0  0  0
 16 25  1  0  0  0  0
 12 25  1  0  0  0  0
 25 26  1  1  0  0  0
 25 27  1  0  0  0  0
 27 28  1  0  0  0  0
 28 29  1  0  0  0  0
 11 29  1  0  0  0  0
 29 30  1  0  0  0  0
  3 30  1  0  0  0  0
  7 30  1  0  0  0  0
 30 31  1  1  0  0  0
 29 31  1  1  0  0  0
  1 32  1  1  0  0  0
 17 33  1  1  0  0  0
 20 34  1  0  0  0  0
 16 35  1  6  0  0  0
M  END
>  <cdx:fragmentId>
5

$$$$
