98697.cdx
  Mrv1902 05222410192D          

 28 30  0  0  0  0            999 V2000
    5.8762   -6.6550    0.0000 C   0  0  1  0  0  0  0  0  0  0  0  0
    5.8762   -7.4800    0.0000 C   0  0  2  0  0  0  0  0  0  0  0  0
    6.5906   -7.8925    0.0000 C   0  0  1  0  0  0  0  0  0  0  0  0
    7.3051   -7.4800    0.0000 O   0  0  0  0  0  0  0  0  0  0  0  0
    7.3051   -6.6550    0.0000 C   0  0  0  0  0  0  0  0  0  0  0  0
    6.5906   -6.2425    0.0000 C   0  0  0  0  0  0  0  0  0  0  0  0
    6.5906   -8.7175    0.0000 O   0  0  0  0  0  0  0  0  0  0  0  0
    7.3051   -9.1300    0.0000 C   0  0  1  0  0  0  0  0  0  0  0  0
    8.0196   -8.7175    0.0000 C   0  0  2  0  0  0  0  0  0  0  0  0
    8.0196   -7.8925    0.0000 O   0  0  0  0  0  0  0  0  0  0  0  0
    7.3051   -9.9550    0.0000 O   0  0  0  0  0  0  0  0  0  0  0  0
    8.0196  -10.3675    0.0000 C   0  0  1  0  0  0  0  0  0  0  0  0
    8.7341   -9.9550    0.0000 C   0  0  2  0  0  0  0  0  0  0  0  0
    8.7341   -9.1300    0.0000 C   0  0  2  0  0  0  0  0  0  0  0  0
    8.0196  -11.1925    0.0000 C   0  0  0  0  0  0  0  0  0  0  0  0
    8.7341  -11.6050    0.0000 O   0  0  0  0  0  0  0  0  0  0  0  0
    9.4485  -10.3675    0.0000 O   0  0  0  0  0  0  0  0  0  0  0  0
    5.0916   -6.4001    0.0000 C   0  0  1  0  0  0  0  0  0  0  0  0
    4.6066   -7.0675    0.0000 C   0  0  0  0  0  0  0  0  0  0  0  0
    5.0916   -7.7349    0.0000 C   0  0  1  0  0  0  0  0  0  0  0  0
    6.5906   -5.4175    0.0000 C   0  0  0  0  0  0  0  0  0  0  0  0
    5.8762   -5.0050    0.0000 O   0  0  0  0  0  0  0  0  0  0  0  0
    7.3051   -5.0050    0.0000 O   0  0  0  0  0  0  0  0  0  0  0  0
    4.8366   -5.6154    0.0000 O   0  0  0  0  0  0  0  0  0  0  0  0
    5.7899   -5.8345    0.0000 H   0  0  0  0  0  0  0  0  0  0  0  0
    5.7899   -8.3005    0.0000 H   0  0  0  0  0  0  0  0  0  0  0  0
    9.4485   -8.7175    0.0000 O   0  0  0  0  0  0  0  0  0  0  0  0
    4.8366   -8.5196    0.0000 C   0  0  0  0  0  0  0  0  0  0  0  0
  1  2  1  0  0  0  0
  2  3  1  0  0  0  0
  3  4  1  0  0  0  0
  4  5  1  0  0  0  0
  5  6  2  0  0  0  0
  6  1  1  0  0  0  0
  3  7  1  1  0  0  0
  8  7  1  1  0  0  0
  8  9  1  0  0  0  0
  9 10  1  6  0  0  0
  8 11  1  0  0  0  0
 11 12  1  0  0  0  0
 12 13  1  0  0  0  0
 13 14  1  0  0  0  0
 14  9  1  0  0  0  0
 12 15  1  1  0  0  0
 15 16  1  0  0  0  0
 13 17  1  6  0  0  0
  1 18  1  0  0  0  0
 18 19  1  0  0  0  0
 19 20  1  0  0  0  0
 20  2  1  0  0  0  0
  6 21  1  0  0  0  0
 21 22  1  0  0  0  0
 21 23  2  0  0  0  0
 18 24  1  1  0  0  0
  1 25  1  1  0  0  0
  2 26  1  1  0  0  0
 14 27  1  1  0  0  0
 20 28  1  6  0  0  0
M  END
>  <cdx:fragmentId>
5

$$$$
