98706.cdx
  Mrv1902 05222410282D          

 22 21  0  0  0  0            999 V2000
   12.4148   -6.6000    0.0000 O   0  0  0  0  0  0  0  0  0  0  0  0
   13.8438   -7.4250    0.0000 C   0  0  0  0  0  0  0  0  0  0  0  0
   13.1293   -7.8375    0.0000 C   0  0  0  0  0  0  0  0  0  0  0  0
   12.4148   -7.4250    0.0000 C   0  0  0  0  0  0  0  0  0  0  0  0
   11.7004   -7.8375    0.0000 C   0  0  0  0  0  0  0  0  0  0  0  0
   10.9859   -7.4250    0.0000 C   0  0  0  0  0  0  0  0  0  0  0  0
   10.2714   -7.8375    0.0000 C   0  0  0  0  0  0  0  0  0  0  0  0
    1.6978   -8.6625    0.0000 O   0  0  0  0  0  0  0  0  0  0  0  0
    0.9833   -7.4250    0.0000 O   0  0  0  0  0  0  0  0  0  0  0  0
    1.6978   -7.8375    0.0000 C   0  0  0  0  0  0  0  0  0  0  0  0
    2.4122   -7.4250    0.0000 C   0  0  0  0  0  0  0  0  0  0  0  0
    3.1267   -7.8375    0.0000 C   0  0  0  0  0  0  0  0  0  0  0  0
    3.8412   -7.4250    0.0000 C   0  0  0  0  0  0  0  0  0  0  0  0
    4.5556   -7.8375    0.0000 C   0  0  0  0  0  0  0  0  0  0  0  0
    5.2701   -7.4250    0.0000 C   0  0  0  0  0  0  0  0  0  0  0  0
    5.9846   -7.8375    0.0000 C   0  0  0  0  0  0  0  0  0  0  0  0
    7.4135   -8.6625    0.0000 O   0  0  0  0  0  0  0  0  0  0  0  0
    6.6991   -7.4250    0.0000 C   0  0  0  0  0  0  0  0  0  0  0  0
    7.4135   -7.8375    0.0000 C   0  0  0  0  0  0  0  0  0  0  0  0
    8.1280   -7.4250    0.0000 C   0  0  0  0  0  0  0  0  0  0  0  0
    8.8425   -7.8375    0.0000 C   0  0  0  0  0  0  0  0  0  0  0  0
    9.5569   -7.4250    0.0000 C   0  0  0  0  0  0  0  0  0  0  0  0
  4  1  1  0  0  0  0
  3  2  1  0  0  0  0
  4  3  1  0  0  0  0
  5  4  1  0  0  0  0
  6  5  2  0  0  0  0
  7  6  1  0  0  0  0
 22  7  2  0  0  0  0
 10  8  2  0  0  0  0
 10  9  1  0  0  0  0
 11 10  1  0  0  0  0
 12 11  1  0  0  0  0
 13 12  1  0  0  0  0
 14 13  1  0  0  0  0
 15 14  1  0  0  0  0
 16 15  1  0  0  0  0
 18 16  1  0  0  0  0
 19 17  2  0  0  0  0
 19 18  1  0  0  0  0
 20 19  1  0  0  0  0
 21 20  2  0  0  0  0
 22 21  1  0  0  0  0
M  END
>  <cdx:fragmentId>
3

$$$$
