98708.cdx
  Mrv1902 05222410192D          

 44 49  0  0  0  0            999 V2000
   11.3831   -8.7958    0.0000 C   0  0  0  0  0  0  0  0  0  0  0  0
   11.3193   -9.6183    0.0000 O   0  0  0  0  0  0  0  0  0  0  0  0
    6.1466   -3.9964    0.0000 C   0  0  0  0  0  0  0  0  0  0  0  0
    5.7924   -4.7415    0.0000 C   0  0  0  0  0  0  0  0  0  0  0  0
    2.8458   -8.6449    0.0000 C   0  0  0  0  0  0  0  0  0  0  0  0
    3.6426   -8.8584    0.0000 C   0  0  0  0  0  0  0  0  0  0  0  0
    8.5801  -11.3983    0.0000 O   0  0  0  0  0  0  0  0  0  0  0  0
    3.5935   -7.0642    0.0000 C   0  0  0  0  0  0  0  0  0  0  0  0
    7.5865   -4.6924    0.0000 C   0  0  0  0  0  0  0  0  0  0  0  0
    9.9092   -6.8912    0.0000 C   0  0  0  0  0  0  0  0  0  0  0  0
    6.0500  -11.2195    0.0000 C   0  0  0  0  0  0  0  0  0  0  0  0
    6.4625  -10.5050    0.0000 C   0  0  0  0  0  0  0  0  0  0  0  0
    5.5543   -7.9083    0.0000 N   0  0  0  0  0  0  0  0  0  0  0  0
    6.7425   -6.6532    0.0000 N   0  0  0  0  0  0  0  0  0  0  0  0
    7.9976   -7.8413    0.0000 N   0  0  0  0  0  0  0  0  0  0  0  0
    9.2779   -8.2189    0.0000 C   0  0  2  0  0  0  0  0  0  0  0  0
    9.2553   -7.3942    0.0000 C   0  0  1  0  0  0  0  0  0  0  0  0
    8.4640   -7.1609    0.0000 C   0  0  0  0  0  0  0  0  0  0  0  0
    8.1877   -6.3835    0.0000 C   0  0  0  0  0  0  0  0  0  0  0  0
    7.3964   -6.1502    0.0000 C   0  0  0  0  0  0  0  0  0  0  0  0
    7.1201   -5.3728    0.0000 C   0  0  0  0  0  0  0  0  0  0  0  0
    6.2954   -5.3954    0.0000 C   0  0  0  0  0  0  0  0  0  0  0  0
    6.0620   -6.1867    0.0000 C   0  0  0  0  0  0  0  0  0  0  0  0
    5.2847   -6.4630    0.0000 C   0  0  0  0  0  0  0  0  0  0  0  0
    5.0513   -7.2544    0.0000 C   0  0  0  0  0  0  0  0  0  0  0  0
    4.2740   -7.5307    0.0000 C   0  0  0  0  0  0  0  0  0  0  0  0
    4.2966   -8.3554    0.0000 C   0  0  0  0  0  0  0  0  0  0  0  0
    5.0879   -8.5887    0.0000 C   0  0  0  0  0  0  0  0  0  0  0  0
    5.3642   -9.3661    0.0000 C   0  0  0  0  0  0  0  0  0  0  0  0
    6.1555   -9.5994    0.0000 C   0  0  0  0  0  0  0  0  0  0  0  0
    6.8094   -9.0964    0.0000 N   0  0  0  0  0  0  0  0  0  0  0  0
    7.4899   -9.5629    0.0000 C   0  0  0  0  0  0  0  0  0  0  0  0
    7.5125  -10.3876    0.0000 C   0  0  0  0  0  0  0  0  0  0  0  0
    8.3038  -10.6209    0.0000 C   0  0  0  0  0  0  0  0  0  0  0  0
    8.7702   -9.9405    0.0000 C   0  0  2  0  0  0  0  0  0  0  0  0
    8.2672   -9.2866    0.0000 C   0  0  0  0  0  0  0  0  0  0  0  0
    8.5006   -8.4953    0.0000 C   0  0  0  0  0  0  0  0  0  0  0  0
   12.1273   -8.4397    0.0000 O   0  0  0  0  0  0  0  0  0  0  0  0
    9.9584   -8.6854    0.0000 C   0  0  0  0  0  0  0  0  0  0  0  0
   10.7026   -8.3293    0.0000 C   0  0  0  0  0  0  0  0  0  0  0  0
    9.5949   -9.9179    0.0000 C   0  0  0  0  0  0  0  0  0  0  0  0
   10.0268  -10.6208    0.0000 O   0  0  0  0  0  0  0  0  0  0  0  0
    9.9877   -9.1924    0.0000 O   0  0  0  0  0  0  0  0  0  0  0  0
   10.8518  -10.6208    0.0000 C   0  0  0  0  0  0  0  0  0  0  0  0
 16 39  1  1  0  0  0
 22  4  1  0  0  0  0
  4  3  2  0  0  0  0
 27  6  1  0  0  0  0
  6  5  1  0  0  0  0
 34  7  1  0  0  0  0
 26  8  1  0  0  0  0
 21  9  1  0  0  0  0
 17 10  1  1  0  0  0
 12 11  1  0  0  0  0
 36 32  1  0  0  0  0
 12 33  1  0  0  0  0
 30 12  2  0  0  0  0
 13 28  1  0  0  0  0
 25 13  2  0  0  0  0
 14 23  1  0  0  0  0
 20 14  2  0  0  0  0
 15 18  1  0  0  0  0
 37 15  1  0  0  0  0
 37 16  1  0  0  0  0
 17 16  1  0  0  0  0
 18 17  1  0  0  0  0
 19 18  2  0  0  0  0
 20 19  1  0  0  0  0
 21 20  1  0  0  0  0
 22 21  2  0  0  0  0
 23 22  1  0  0  0  0
 24 23  2  0  0  0  0
 25 24  1  0  0  0  0
 26 25  1  0  0  0  0
 27 26  2  0  0  0  0
 28 27  1  0  0  0  0
 29 28  2  0  0  0  0
 30 29  1  0  0  0  0
 31 30  1  0  0  0  0
 32 31  2  0  0  0  0
 33 32  1  0  0  0  0
 34 33  2  0  0  0  0
 35 34  1  0  0  0  0
 36 35  1  0  0  0  0
 37 36  2  0  0  0  0
 40 39  1  0  0  0  0
  1 40  1  0  0  0  0
  1  2  2  0  0  0  0
  1 38  1  0  0  0  0
 35 41  1  6  0  0  0
 41 42  1  0  0  0  0
 41 43  2  0  0  0  0
 42 44  1  0  0  0  0
M  END
>  <cdx:fragmentId>
15

$$$$
