98700.cdx
  Mrv1902 05222410272D          

 18 17  0  0  0  0            999 V2000
    4.2299   -9.2538    0.0000 O   0  0  0  0  0  0  0  0  0  0  0  0
    8.5167   -8.4288    0.0000 C   0  0  0  0  0  0  0  0  0  0  0  0
    7.8022   -8.0162    0.0000 C   0  0  0  0  0  0  0  0  0  0  0  0
    7.0878   -8.4288    0.0000 C   0  0  0  0  0  0  0  0  0  0  0  0
    6.3733   -8.0162    0.0000 C   0  0  0  0  0  0  0  0  0  0  0  0
    5.6588   -8.4288    0.0000 C   0  0  0  0  0  0  0  0  0  0  0  0
    4.9444   -8.0162    0.0000 C   0  0  0  0  0  0  0  0  0  0  0  0
    4.2299   -8.4288    0.0000 C   0  0  0  0  0  0  0  0  0  0  0  0
    3.5154   -8.0162    0.0000 O   0  0  0  0  0  0  0  0  0  0  0  0
    9.2312   -8.0162    0.0000 C   0  0  0  0  0  0  0  0  0  0  0  0
    9.2312   -7.1913    0.0000 C   0  0  0  0  0  0  0  0  0  0  0  0
    9.9456   -6.7788    0.0000 C   0  0  0  0  0  0  0  0  0  0  0  0
    9.9456   -5.9538    0.0000 C   0  0  0  0  0  0  0  0  0  0  0  0
    9.2312   -5.5413    0.0000 C   0  0  0  0  0  0  0  0  0  0  0  0
    9.2312   -4.7162    0.0000 C   0  0  0  0  0  0  0  0  0  0  0  0
    8.5167   -4.3037    0.0000 C   0  0  0  0  0  0  0  0  0  0  0  0
    7.8022   -4.7162    0.0000 C   0  0  0  0  0  0  0  0  0  0  0  0
    7.0878   -4.3037    0.0000 C   0  0  0  0  0  0  0  0  0  0  0  0
  8  1  2  0  0  0  0
  2  3  1  0  0  0  0
  3  4  1  0  0  0  0
  4  5  1  0  0  0  0
  5  6  1  0  0  0  0
  6  7  1  0  0  0  0
  7  8  1  0  0  0  0
  8  9  1  0  0  0  0
  2 10  2  0  0  0  0
 10 11  1  0  0  0  0
 11 12  1  0  0  0  0
 12 13  2  0  0  0  0
 13 14  1  0  0  0  0
 14 15  1  0  0  0  0
 15 16  2  0  0  0  0
 16 17  1  0  0  0  0
 17 18  1  0  0  0  0
M  END
>  <cdx:fragmentId>
3

$$$$
