98709.cdx
  Mrv1902 05222410192D          

 40 45  0  0  0  0            999 V2000
   11.5347   -8.7727    0.0000 C   0  0  0  0  0  0  0  0  0  0  0  0
   11.4618   -9.5945    0.0000 O   0  0  0  0  0  0  0  0  0  0  0  0
    6.3517   -3.9157    0.0000 C   0  0  0  0  0  0  0  0  0  0  0  0
    5.9892   -4.6568    0.0000 C   0  0  0  0  0  0  0  0  0  0  0  0
    2.9971   -8.5361    0.0000 C   0  0  0  0  0  0  0  0  0  0  0  0
    3.7940   -8.7496    0.0000 C   0  0  0  0  0  0  0  0  0  0  0  0
    8.7031  -11.3440    0.0000 O   0  0  0  0  0  0  0  0  0  0  0  0
    3.7647   -6.9550    0.0000 C   0  0  0  0  0  0  0  0  0  0  0  0
    7.7838   -4.6275    0.0000 C   0  0  0  0  0  0  0  0  0  0  0  0
   10.0820   -6.8519    0.0000 C   0  0  0  0  0  0  0  0  0  0  0  0
    6.3525  -11.0545    0.0000 C   0  0  0  0  0  0  0  0  0  0  0  0
    6.7650  -10.3400    0.0000 C   0  0  0  0  0  0  0  0  0  0  0  0
    5.7161   -7.8207    0.0000 N   0  0  0  0  0  0  0  0  0  0  0  0
    6.9181   -6.5789    0.0000 N   0  0  0  0  0  0  0  0  0  0  0  0
    8.1599   -7.7808    0.0000 N   0  0  0  0  0  0  0  0  0  0  0  0
    9.4360   -8.1726    0.0000 C   0  0  0  0  0  0  0  0  0  0  0  0
    9.4226   -7.3477    0.0000 C   0  0  0  0  0  0  0  0  0  0  0  0
    8.6339   -7.1056    0.0000 C   0  0  0  0  0  0  0  0  0  0  0  0
    8.3662   -6.3252    0.0000 C   0  0  0  0  0  0  0  0  0  0  0  0
    7.5775   -6.0831    0.0000 C   0  0  0  0  0  0  0  0  0  0  0  0
    7.3098   -5.3027    0.0000 C   0  0  0  0  0  0  0  0  0  0  0  0
    6.4849   -5.3162    0.0000 C   0  0  0  0  0  0  0  0  0  0  0  0
    6.2428   -6.1049    0.0000 C   0  0  0  0  0  0  0  0  0  0  0  0
    5.4624   -6.3726    0.0000 C   0  0  0  0  0  0  0  0  0  0  0  0
    5.2203   -7.1613    0.0000 C   0  0  0  0  0  0  0  0  0  0  0  0
    4.4400   -7.4290    0.0000 C   0  0  0  0  0  0  0  0  0  0  0  0
    4.4534   -8.2539    0.0000 C   0  0  0  0  0  0  0  0  0  0  0  0
    5.2421   -8.4960    0.0000 C   0  0  0  0  0  0  0  0  0  0  0  0
    5.5098   -9.2763    0.0000 C   0  0  0  0  0  0  0  0  0  0  0  0
    6.2985   -9.5184    0.0000 C   0  0  0  0  0  0  0  0  0  0  0  0
    6.9579   -9.0227    0.0000 N   0  0  0  0  0  0  0  0  0  0  0  0
    7.6332   -9.4966    0.0000 C   0  0  0  0  0  0  0  0  0  0  0  0
    7.6467  -10.3215    0.0000 C   0  0  0  0  0  0  0  0  0  0  0  0
    8.4354  -10.5636    0.0000 C   0  0  0  0  0  0  0  0  0  0  0  0
    8.9093   -9.8884    0.0000 C   0  0  0  0  0  0  0  0  0  0  0  0
    8.4136   -9.2289    0.0000 C   0  0  0  0  0  0  0  0  0  0  0  0
    8.6557   -8.4403    0.0000 C   0  0  0  0  0  0  0  0  0  0  0  0
   12.2828   -8.4249    0.0000 O   0  0  0  0  0  0  0  0  0  0  0  0
   10.1113   -8.6465    0.0000 C   0  0  0  0  0  0  0  0  0  0  0  0
   10.8594   -8.2987    0.0000 C   0  0  0  0  0  0  0  0  0  0  0  0
 16 39  1  0  0  0  0
 22  4  1  0  0  0  0
  4  3  2  0  0  0  0
 27  6  1  0  0  0  0
  6  5  1  0  0  0  0
 34  7  1  0  0  0  0
 26  8  1  0  0  0  0
 21  9  1  0  0  0  0
 17 10  1  0  0  0  0
 12 11  1  0  0  0  0
 36 32  1  0  0  0  0
 12 33  1  0  0  0  0
 30 12  2  0  0  0  0
 13 28  1  0  0  0  0
 25 13  2  0  0  0  0
 14 23  1  0  0  0  0
 20 14  2  0  0  0  0
 15 18  1  0  0  0  0
 37 15  1  0  0  0  0
 37 16  1  0  0  0  0
 17 16  1  0  0  0  0
 18 17  1  0  0  0  0
 19 18  2  0  0  0  0
 20 19  1  0  0  0  0
 21 20  1  0  0  0  0
 22 21  2  0  0  0  0
 23 22  1  0  0  0  0
 24 23  2  0  0  0  0
 25 24  1  0  0  0  0
 26 25  1  0  0  0  0
 27 26  2  0  0  0  0
 28 27  1  0  0  0  0
 29 28  2  0  0  0  0
 30 29  1  0  0  0  0
 31 30  1  0  0  0  0
 32 31  2  0  0  0  0
 33 32  1  0  0  0  0
 34 33  2  0  0  0  0
 35 34  1  0  0  0  0
 36 35  1  0  0  0  0
 37 36  2  0  0  0  0
 40 39  1  0  0  0  0
  1 40  1  0  0  0  0
  1  2  2  0  0  0  0
  1 38  1  0  0  0  0
M  END
>  <cdx:fragmentId>
15

$$$$
