98701.cdx
  Mrv1902 05222410272D          

 42 43  0  0  0  0            999 V2000
    2.9845  -11.8010    0.0000 C   0  0  1  0  0  0  0  0  0  0  0  0
    3.6990  -11.3885    0.0000 C   0  0  0  0  0  0  0  0  0  0  0  0
    3.6990  -10.5635    0.0000 C   0  0  0  0  0  0  0  0  0  0  0  0
    2.9845  -10.1510    0.0000 C   0  0  1  0  0  0  0  0  0  0  0  0
    2.2700  -10.5635    0.0000 C   0  0  0  0  0  0  0  0  0  0  0  0
    2.2700  -11.3885    0.0000 C   0  0  0  0  0  0  0  0  0  0  0  0
    2.9845  -12.6260    0.0000 O   0  0  0  0  0  0  0  0  0  0  0  0
    1.8575   -9.8490    0.0000 C   0  0  0  0  0  0  0  0  0  0  0  0
    1.4450  -10.5635    0.0000 C   0  0  0  0  0  0  0  0  0  0  0  0
    4.4135  -10.1510    0.0000 C   0  0  0  0  0  0  0  0  0  0  0  0
    2.9845   -9.3260    0.0000 C   0  0  0  0  0  0  0  0  0  0  0  0
    3.6990   -8.9135    0.0000 C   0  0  0  0  0  0  0  0  0  0  0  0
    3.6990   -8.0885    0.0000 C   0  0  0  0  0  0  0  0  0  0  0  0
    2.9845   -7.6760    0.0000 C   0  0  0  0  0  0  0  0  0  0  0  0
   17.2739   -9.3259    0.0000 O   0  0  0  0  0  0  0  0  0  0  0  0
   14.4161   -9.3259    0.0000 C   0  0  0  0  0  0  0  0  0  0  0  0
   16.2575   -6.9615    0.0000 C   0  0  0  0  0  0  0  0  0  0  0  0
   15.4325   -6.9615    0.0000 C   0  0  0  0  0  0  0  0  0  0  0  0
   15.8450   -7.6759    0.0000 C   0  0  0  0  0  0  0  0  0  0  0  0
   16.5595   -8.0884    0.0000 C   0  0  0  0  0  0  0  0  0  0  0  0
   16.5595   -8.9134    0.0000 C   0  0  1  0  0  0  0  0  0  0  0  0
   15.8450   -9.3259    0.0000 C   0  0  0  0  0  0  0  0  0  0  0  0
   15.1305   -8.9134    0.0000 C   0  0  0  0  0  0  0  0  0  0  0  0
   15.1305   -8.0884    0.0000 C   0  0  0  0  0  0  0  0  0  0  0  0
    6.5569   -8.9135    0.0000 C   0  0  0  0  0  0  0  0  0  0  0  0
   10.1292   -6.8510    0.0000 C   0  0  0  0  0  0  0  0  0  0  0  0
   12.9871   -6.8509    0.0000 C   0  0  0  0  0  0  0  0  0  0  0  0
   14.4161   -7.6759    0.0000 C   0  0  0  0  0  0  0  0  0  0  0  0
   13.7016   -8.0884    0.0000 C   0  0  0  0  0  0  0  0  0  0  0  0
   12.9871   -7.6759    0.0000 C   0  0  0  0  0  0  0  0  0  0  0  0
   12.2726   -8.0884    0.0000 C   0  0  0  0  0  0  0  0  0  0  0  0
   11.5582   -7.6759    0.0000 C   0  0  0  0  0  0  0  0  0  0  0  0
   10.8437   -8.0885    0.0000 C   0  0  0  0  0  0  0  0  0  0  0  0
   10.1292   -7.6760    0.0000 C   0  0  0  0  0  0  0  0  0  0  0  0
    9.4148   -8.0885    0.0000 C   0  0  0  0  0  0  0  0  0  0  0  0
    8.7003   -7.6760    0.0000 C   0  0  0  0  0  0  0  0  0  0  0  0
    7.9858   -8.0885    0.0000 C   0  0  0  0  0  0  0  0  0  0  0  0
    7.2713   -7.6760    0.0000 C   0  0  0  0  0  0  0  0  0  0  0  0
    6.5569   -8.0885    0.0000 C   0  0  0  0  0  0  0  0  0  0  0  0
    5.8424   -7.6760    0.0000 C   0  0  0  0  0  0  0  0  0  0  0  0
    5.1279   -8.0885    0.0000 C   0  0  0  0  0  0  0  0  0  0  0  0
    4.4135   -7.6760    0.0000 C   0  0  0  0  0  0  0  0  0  0  0  0
 24 28  1  0  0  0  0
 21 15  1  6  0  0  0
 23 16  1  0  0  0  0
 19 17  1  0  0  0  0
 19 18  1  0  0  0  0
 24 19  1  0  0  0  0
 20 19  1  0  0  0  0
 21 20  1  0  0  0  0
 22 21  1  0  0  0  0
 23 22  1  0  0  0  0
 24 23  2  0  0  0  0
 39 25  1  0  0  0  0
 34 26  1  0  0  0  0
 30 27  1  0  0  0  0
 29 28  2  0  0  0  0
 30 29  1  0  0  0  0
 31 30  2  0  0  0  0
 32 31  1  0  0  0  0
 33 32  2  0  0  0  0
 34 33  1  0  0  0  0
 35 34  2  0  0  0  0
 36 35  1  0  0  0  0
 37 36  2  0  0  0  0
 38 37  1  0  0  0  0
 39 38  2  0  0  0  0
 40 39  1  0  0  0  0
 41 40  2  0  0  0  0
 42 41  1  0  0  0  0
  1  2  1  0  0  0  0
  2  3  2  0  0  0  0
  3  4  1  0  0  0  0
  4  5  1  0  0  0  0
  5  6  1  0  0  0  0
  1  6  1  0  0  0  0
  1  7  1  6  0  0  0
  5  8  1  0  0  0  0
  5  9  1  0  0  0  0
  3 10  1  0  0  0  0
 11 12  2  0  0  0  0
 12 13  1  0  0  0  0
 13 42  2  0  0  0  0
 13 14  1  0  0  0  0
  4 11  1  1  0  0  0
M  END
>  <cdx:fragmentId>
13528

$$$$
