98702.cdx
  Mrv1902 05222410262D          

 36 36  0  0  0  0            999 V2000
    4.7076   -9.5271    0.0000 O   0  0  0  0  0  0  0  0  0  0  0  0
    3.2786   -8.7021    0.0000 O   0  0  0  0  0  0  0  0  0  0  0  0
    3.9931   -8.2896    0.0000 C   0  0  0  0  0  0  0  0  0  0  0  0
    4.7076   -8.7021    0.0000 C   0  0  2  0  0  0  0  0  0  0  0  0
    5.4220   -8.2896    0.0000 C   0  0  0  0  0  0  0  0  0  0  0  0
    6.1365   -8.7021    0.0000 O   0  0  0  0  0  0  0  0  0  0  0  0
    6.8510   -7.4646    0.0000 O   0  0  0  0  0  0  0  0  0  0  0  0
   12.5667   -8.2896    0.0000 C   0  0  0  0  0  0  0  0  0  0  0  0
   11.8523   -8.7021    0.0000 C   0  0  0  0  0  0  0  0  0  0  0  0
   11.1378   -8.2896    0.0000 C   0  0  0  0  0  0  0  0  0  0  0  0
   10.4233   -8.7021    0.0000 C   0  0  0  0  0  0  0  0  0  0  0  0
    9.7089   -8.2896    0.0000 C   0  0  0  0  0  0  0  0  0  0  0  0
    8.9944   -8.7021    0.0000 C   0  0  0  0  0  0  0  0  0  0  0  0
    8.2799   -8.2896    0.0000 C   0  0  0  0  0  0  0  0  0  0  0  0
    7.5654   -8.7021    0.0000 C   0  0  0  0  0  0  0  0  0  0  0  0
    6.8510   -8.2896    0.0000 C   0  0  0  0  0  0  0  0  0  0  0  0
   13.2812   -8.7021    0.0000 C   0  0  0  0  0  0  0  0  0  0  0  0
   13.2812   -9.5271    0.0000 C   0  0  0  0  0  0  0  0  0  0  0  0
   13.9957   -9.9396    0.0000 C   0  0  0  0  0  0  0  0  0  0  0  0
   13.9957  -10.7646    0.0000 C   0  0  0  0  0  0  0  0  0  0  0  0
   13.2812  -11.1771    0.0000 C   0  0  0  0  0  0  0  0  0  0  0  0
   13.2812  -12.0021    0.0000 C   0  0  0  0  0  0  0  0  0  0  0  0
   12.5667  -12.4146    0.0000 C   0  0  0  0  0  0  0  0  0  0  0  0
   12.5667  -13.2396    0.0000 C   0  0  0  0  0  0  0  0  0  0  0  0
   11.8523  -13.6521    0.0000 C   0  0  0  0  0  0  0  0  0  0  0  0
    2.5641   -8.2896    0.0000 C   0  0  2  0  0  0  0  0  0  0  0  0
    2.5641   -7.4646    0.0000 O   0  0  0  0  0  0  0  0  0  0  0  0
    1.8497   -7.0521    0.0000 C   0  0  1  0  0  0  0  0  0  0  0  0
    1.1352   -7.4646    0.0000 C   0  0  1  0  0  0  0  0  0  0  0  0
    1.1352   -8.2896    0.0000 C   0  0  1  0  0  0  0  0  0  0  0  0
    1.8497   -8.7021    0.0000 C   0  0  1  0  0  0  0  0  0  0  0  0
    1.8497   -6.2271    0.0000 C   0  0  0  0  0  0  0  0  0  0  0  0
    0.4207   -7.0521    0.0000 O   0  0  0  0  0  0  0  0  0  0  0  0
    0.4207   -8.7021    0.0000 O   0  0  0  0  0  0  0  0  0  0  0  0
    1.8497   -9.5271    0.0000 O   0  0  0  0  0  0  0  0  0  0  0  0
    1.1352   -5.8146    0.0000 O   0  0  0  0  0  0  0  0  0  0  0  0
  6  5  1  0  0  0  0
  4  1  1  6  0  0  0
  3  2  1  0  0  0  0
  4  3  1  0  0  0  0
  5  4  1  0  0  0  0
 16  6  1  0  0  0  0
 16  7  2  0  0  0  0
  9  8  1  0  0  0  0
 10  9  1  0  0  0  0
 11 10  1  0  0  0  0
 12 11  1  0  0  0  0
 13 12  1  0  0  0  0
 14 13  1  0  0  0  0
 15 14  1  0  0  0  0
 16 15  1  0  0  0  0
  8 17  2  0  0  0  0
 17 18  1  0  0  0  0
 18 19  1  0  0  0  0
 19 20  2  0  0  0  0
 20 21  1  0  0  0  0
 21 22  1  0  0  0  0
 22 23  1  0  0  0  0
 23 24  1  0  0  0  0
 24 25  1  0  0  0  0
 26  2  1  1  0  0  0
 26 27  1  0  0  0  0
 27 28  1  0  0  0  0
 28 29  1  0  0  0  0
 29 30  1  0  0  0  0
 30 31  1  0  0  0  0
 31 26  1  0  0  0  0
 28 32  1  1  0  0  0
 29 33  1  1  0  0  0
 30 34  1  1  0  0  0
 31 35  1  6  0  0  0
 32 36  1  0  0  0  0
M  END
>  <cdx:fragmentId>
139

$$$$
