98705.cdx
  Mrv1902 05222410272D          

 21 20  0  0  0  0            999 V2000
    2.5767   -8.4150    0.0000 O   0  0  0  0  0  0  0  0  0  0  0  0
    1.8622   -7.1775    0.0000 O   0  0  0  0  0  0  0  0  0  0  0  0
    2.5767   -7.5900    0.0000 C   0  0  0  0  0  0  0  0  0  0  0  0
    3.2912   -7.1775    0.0000 C   0  0  0  0  0  0  0  0  0  0  0  0
    4.0056   -7.5900    0.0000 C   0  0  0  0  0  0  0  0  0  0  0  0
    4.7201   -7.1775    0.0000 C   0  0  0  0  0  0  0  0  0  0  0  0
    5.4346   -7.5900    0.0000 C   0  0  0  0  0  0  0  0  0  0  0  0
    6.1491   -7.1775    0.0000 C   0  0  0  0  0  0  0  0  0  0  0  0
    6.8635   -7.5900    0.0000 C   0  0  0  0  0  0  0  0  0  0  0  0
    8.2925   -8.4150    0.0000 O   0  0  0  0  0  0  0  0  0  0  0  0
    7.5780   -7.1775    0.0000 C   0  0  0  0  0  0  0  0  0  0  0  0
    8.2925   -7.5900    0.0000 C   0  0  0  0  0  0  0  0  0  0  0  0
    9.0069   -7.1775    0.0000 C   0  0  0  0  0  0  0  0  0  0  0  0
    9.7214   -7.5900    0.0000 C   0  0  0  0  0  0  0  0  0  0  0  0
   10.4359   -7.1775    0.0000 C   0  0  0  0  0  0  0  0  0  0  0  0
   11.1504   -7.5900    0.0000 C   0  0  0  0  0  0  0  0  0  0  0  0
   11.1504   -8.4150    0.0000 C   0  0  0  0  0  0  0  0  0  0  0  0
   11.8648   -8.8275    0.0000 C   0  0  0  0  0  0  0  0  0  0  0  0
   11.8648   -9.6525    0.0000 C   0  0  0  0  0  0  0  0  0  0  0  0
   11.1504  -10.0650    0.0000 C   0  0  0  0  0  0  0  0  0  0  0  0
   11.1504  -10.8900    0.0000 C   0  0  0  0  0  0  0  0  0  0  0  0
  3  1  2  0  0  0  0
  3  2  1  0  0  0  0
  4  3  1  0  0  0  0
  5  4  1  0  0  0  0
  6  5  1  0  0  0  0
  7  6  1  0  0  0  0
  8  7  1  0  0  0  0
  9  8  1  0  0  0  0
 11  9  1  0  0  0  0
 12 10  2  0  0  0  0
 12 11  1  0  0  0  0
 13 12  1  0  0  0  0
 14 13  2  0  0  0  0
 15 14  1  0  0  0  0
 15 16  2  0  0  0  0
 16 17  1  0  0  0  0
 17 18  1  0  0  0  0
 18 19  2  0  0  0  0
 19 20  1  0  0  0  0
 20 21  1  0  0  0  0
M  END
>  <cdx:fragmentId>
3

$$$$
