98703.cdx
  Mrv1902 05222410262D          

 45 50  0  0  0  0            999 V2000
   10.1382  -11.6536    0.0000 C   0  0  0  0  0  0  0  0  0  0  0  0
    9.4271  -11.2353    0.0000 O   0  0  0  0  0  0  0  0  0  0  0  0
   10.1518  -10.0037    0.0000 O   0  0  0  0  0  0  0  0  0  0  0  0
    9.4339  -10.4103    0.0000 C   0  0  0  0  0  0  0  0  0  0  0  0
    9.3110   -9.4134    0.0000 O   0  0  0  0  0  0  0  0  0  0  0  0
   11.3864   -8.9709    0.0000 C   0  0  0  0  0  0  0  0  0  0  0  0
   11.2843   -9.7895    0.0000 O   0  0  0  0  0  0  0  0  0  0  0  0
    6.3805   -3.9316    0.0000 C   0  0  0  0  0  0  0  0  0  0  0  0
    5.9917   -4.6592    0.0000 C   0  0  0  0  0  0  0  0  0  0  0  0
    2.8547   -8.4574    0.0000 C   0  0  0  0  0  0  0  0  0  0  0  0
    3.6516   -8.6709    0.0000 C   0  0  0  0  0  0  0  0  0  0  0  0
    8.4647  -11.4393    0.0000 O   0  0  0  0  0  0  0  0  0  0  0  0
    3.6865   -6.8764    0.0000 C   0  0  0  0  0  0  0  0  0  0  0  0
    7.7862   -4.6942    0.0000 C   0  0  0  0  0  0  0  0  0  0  0  0
   10.0034   -6.9994    0.0000 C   0  0  0  0  0  0  0  0  0  0  0  0
    6.2007  -10.8617    0.0000 C   0  0  0  0  0  0  0  0  0  0  0  0
    6.6480  -10.1685    0.0000 C   0  0  0  0  0  0  0  0  0  0  0  0
    5.6057   -7.8114    0.0000 N   0  0  0  0  0  0  0  0  0  0  0  0
    6.8513   -6.6133    0.0000 N   0  0  0  0  0  0  0  0  0  0  0  0
    8.0493   -7.8589    0.0000 N   0  0  0  0  0  0  0  0  0  0  0  0
    9.3106   -8.2961    0.0000 C   0  0  1  0  0  0  0  0  0  0  0  0
    9.3267   -7.4712    0.0000 C   0  0  1  0  0  0  0  0  0  0  0  0
    8.5472   -7.2011    0.0000 C   0  0  0  0  0  0  0  0  0  0  0  0
    8.3075   -6.4116    0.0000 C   0  0  0  0  0  0  0  0  0  0  0  0
    7.5280   -6.1415    0.0000 C   0  0  0  0  0  0  0  0  0  0  0  0
    7.2884   -5.3520    0.0000 C   0  0  0  0  0  0  0  0  0  0  0  0
    6.4636   -5.3360    0.0000 C   0  0  0  0  0  0  0  0  0  0  0  0
    6.1934   -6.1155    0.0000 C   0  0  0  0  0  0  0  0  0  0  0  0
    5.4040   -6.3551    0.0000 C   0  0  0  0  0  0  0  0  0  0  0  0
    5.1338   -7.1346    0.0000 C   0  0  0  0  0  0  0  0  0  0  0  0
    4.3444   -7.3743    0.0000 C   0  0  0  0  0  0  0  0  0  0  0  0
    4.3283   -8.1991    0.0000 C   0  0  0  0  0  0  0  0  0  0  0  0
    5.1078   -8.4693    0.0000 C   0  0  0  0  0  0  0  0  0  0  0  0
    5.3475   -9.2587    0.0000 C   0  0  0  0  0  0  0  0  0  0  0  0
    6.1270   -9.5288    0.0000 C   0  0  0  0  0  0  0  0  0  0  0  0
    6.8037   -9.0570    0.0000 N   0  0  0  0  0  0  0  0  0  0  0  0
    7.4616   -9.5548    0.0000 C   0  0  0  0  0  0  0  0  0  0  0  0
    7.4455  -10.3797    0.0000 C   0  0  0  0  0  0  0  0  0  0  0  0
    8.2251  -10.6498    0.0000 C   0  0  0  0  0  0  0  0  0  0  0  0
    8.7229   -9.9919    0.0000 C   0  0  1  0  0  0  0  0  0  0  0  0
    8.2510   -9.3152    0.0000 C   0  0  0  0  0  0  0  0  0  0  0  0
    8.5212   -8.5357    0.0000 C   0  0  0  0  0  0  0  0  0  0  0  0
   12.1465   -8.6500    0.0000 O   0  0  0  0  0  0  0  0  0  0  0  0
    9.9685   -8.7939    0.0000 C   0  0  0  0  0  0  0  0  0  0  0  0
   10.7286   -8.4731    0.0000 C   0  0  0  0  0  0  0  0  0  0  0  0
  2  1  1  0  0  0  0
  4  2  1  0  0  0  0
  4  3  2  0  0  0  0
 40  4  1  0  0  0  0
 40  5  1  6  0  0  0
 21 44  1  6  0  0  0
 27  9  1  0  0  0  0
  9  8  2  0  0  0  0
 32 11  1  0  0  0  0
 11 10  1  0  0  0  0
 39 12  1  0  0  0  0
 31 13  1  0  0  0  0
 26 14  1  0  0  0  0
 22 15  1  1  0  0  0
 17 16  1  0  0  0  0
 41 37  1  0  0  0  0
 17 38  1  0  0  0  0
 35 17  2  0  0  0  0
 18 33  1  0  0  0  0
 30 18  2  0  0  0  0
 19 28  1  0  0  0  0
 25 19  2  0  0  0  0
 20 23  1  0  0  0  0
 42 20  1  0  0  0  0
 42 21  1  0  0  0  0
 22 21  1  0  0  0  0
 23 22  1  0  0  0  0
 24 23  2  0  0  0  0
 25 24  1  0  0  0  0
 26 25  1  0  0  0  0
 27 26  2  0  0  0  0
 28 27  1  0  0  0  0
 29 28  2  0  0  0  0
 30 29  1  0  0  0  0
 31 30  1  0  0  0  0
 32 31  2  0  0  0  0
 33 32  1  0  0  0  0
 34 33  2  0  0  0  0
 35 34  1  0  0  0  0
 36 35  1  0  0  0  0
 37 36  2  0  0  0  0
 38 37  1  0  0  0  0
 39 38  2  0  0  0  0
 40 39  1  0  0  0  0
 41 40  1  0  0  0  0
 42 41  2  0  0  0  0
 45 44  1  0  0  0  0
  6 45  1  0  0  0  0
  6  7  2  0  0  0  0
  6 43  1  0  0  0  0
M  END
>  <cdx:fragmentId>
15

$$$$
