98718.cdx
  Mrv1902 05222410192D          

 15 17  0  0  0  0            999 V2000
    5.9953   -8.0713    0.0000 C   0  0  0  0  0  0  0  0  0  0  0  0
    5.9953   -8.8963    0.0000 C   0  0  0  0  0  0  0  0  0  0  0  0
    6.6403   -9.4106    0.0000 C   0  0  0  0  0  0  0  0  0  0  0  0
    7.4447   -9.2270    0.0000 C   0  0  0  0  0  0  0  0  0  0  0  0
    7.8026   -8.4838    0.0000 C   0  0  0  0  0  0  0  0  0  0  0  0
    7.4447   -7.7405    0.0000 C   0  0  0  0  0  0  0  0  0  0  0  0
    6.6403   -7.5569    0.0000 C   0  0  0  0  0  0  0  0  0  0  0  0
    7.8678   -7.0322    0.0000 C   0  0  0  0  0  0  0  0  0  0  0  0
    7.3250   -6.4109    0.0000 C   0  0  0  0  0  0  0  0  0  0  0  0
    6.5664   -6.7352    0.0000 C   0  0  0  0  0  0  0  0  0  0  0  0
    5.2809   -8.4838    0.0000 C   0  0  0  0  0  0  0  0  0  0  0  0
    4.5664   -8.0713    0.0000 C   0  0  0  0  0  0  0  0  0  0  0  0
    4.5664   -8.8963    0.0000 C   0  0  0  0  0  0  0  0  0  0  0  0
    8.6276   -8.4838    0.0000 C   0  0  0  0  0  0  0  0  0  0  0  0
    5.8582   -6.3121    0.0000 C   0  0  0  0  0  0  0  0  0  0  0  0
  1  2  1  0  0  0  0
  2  3  1  0  0  0  0
  3  4  1  0  0  0  0
  4  5  1  0  0  0  0
  5  6  1  0  0  0  0
  6  7  1  0  0  0  0
  7  1  1  0  0  0  0
  6  8  1  0  0  0  0
  8  9  1  0  0  0  0
  9 10  1  0  0  0  0
 10  7  1  0  0  0  0
  1 11  1  0  0  0  0
  2 11  1  0  0  0  0
 11 12  1  0  0  0  0
 11 13  1  0  0  0  0
  5 14  2  0  0  0  0
 10 15  1  0  0  0  0
M  END
>  <cdx:fragmentId>
5

$$$$
