98716.cdx
  Mrv1902 05222410262D          

 16 17  0  0  0  0            999 V2000
    7.2998   -8.6978    0.0000 C   0  0  1  0  0  0  0  0  0  0  0  0
    6.5855   -8.2850    0.0000 C   0  0  0  0  0  0  0  0  0  0  0  0
    6.5857   -7.4600    0.0000 C   0  0  0  0  0  0  0  0  0  0  0  0
    7.3003   -7.0478    0.0000 C   0  0  0  0  0  0  0  0  0  0  0  0
    8.0147   -7.4605    0.0000 C   0  0  0  0  0  0  0  0  0  0  0  0
    8.7293   -7.0482    0.0000 C   0  0  0  0  0  0  0  0  0  0  0  0
    9.4436   -7.4609    0.0000 C   0  0  0  0  0  0  0  0  0  0  0  0
    9.4434   -8.2859    0.0000 C   0  0  0  0  0  0  0  0  0  0  0  0
    8.7288   -8.6982    0.0000 C   0  0  0  0  0  0  0  0  0  0  0  0
    8.0144   -8.2855    0.0000 C   0  0  0  0  0  0  0  0  0  0  0  0
    7.2996   -9.5228    0.0000 O   0  0  0  0  0  0  0  0  0  0  0  0
    5.8706   -9.5223    0.0000 C   0  0  0  0  0  0  0  0  0  0  0  0
    5.8709   -8.6973    0.0000 C   0  0  0  0  0  0  0  0  0  0  0  0
    5.1565   -8.2846    0.0000 C   0  0  0  0  0  0  0  0  0  0  0  0
    8.7285   -9.5232    0.0000 C   0  0  0  0  0  0  0  0  0  0  0  0
    8.0149   -6.6355    0.0000 C   0  0  0  0  0  0  0  0  0  0  0  0
  1  2  1  0  0  0  0
  2  3  1  0  0  0  0
  3  4  1  0  0  0  0
  4  5  1  0  0  0  0
  5  6  1  0  0  0  0
  6  7  1  0  0  0  0
  7  8  1  0  0  0  0
  8  9  1  0  0  0  0
  9 10  1  0  0  0  0
  1 10  1  0  0  0  0
  5 10  1  0  0  0  0
  1 11  1  1  0  0  0
 12 13  2  0  0  0  0
 13 14  1  0  0  0  0
  2 13  1  0  0  0  0
  9 15  1  0  0  0  0
  5 16  1  0  0  0  0
M  END
>  <cdx:fragmentId>
5

$$$$
