98713.cdx
  Mrv1902 05222410282D          

 38 43  0  0  0  0            999 V2000
   10.9141   -7.4518    0.0000 C   0  0  0  0  0  0  0  0  0  0  0  0
   11.6285   -7.0393    0.0000 O   0  0  0  0  0  0  0  0  0  0  0  0
   10.9141   -8.2768    0.0000 O   0  0  0  0  0  0  0  0  0  0  0  0
    5.1985   -8.2768    0.0000 C   0  0  2  0  0  0  0  0  0  0  0  0
    5.1985   -9.1018    0.0000 C   0  0  1  0  0  0  0  0  0  0  0  0
    5.9129   -9.5143    0.0000 C   0  0  2  0  0  0  0  0  0  0  0  0
    6.6273   -9.1018    0.0000 C   0  0  0  0  0  0  0  0  0  0  0  0
    6.6273   -8.2768    0.0000 C   0  0  2  0  0  0  0  0  0  0  0  0
    5.9129   -7.8643    0.0000 C   0  0  0  0  0  0  0  0  0  0  0  0
    7.3418   -9.5143    0.0000 C   0  0  0  0  0  0  0  0  0  0  0  0
    8.0563   -9.1018    0.0000 C   0  0  0  0  0  0  0  0  0  0  0  0
    8.0563   -8.2768    0.0000 C   0  0  2  0  0  0  0  0  0  0  0  0
    7.3418   -7.8643    0.0000 C   0  0  0  0  0  0  0  0  0  0  0  0
    8.7708   -7.8643    0.0000 C   0  0  1  0  0  0  0  0  0  0  0  0
    8.7708   -7.0393    0.0000 C   0  0  0  0  0  0  0  0  0  0  0  0
    8.0563   -6.6268    0.0000 C   0  0  0  0  0  0  0  0  0  0  0  0
    7.3418   -7.0393    0.0000 C   0  0  0  0  0  0  0  0  0  0  0  0
    9.4851   -8.2768    0.0000 C   0  0  0  0  0  0  0  0  0  0  0  0
   10.1996   -7.8643    0.0000 C   0  0  0  0  0  0  0  0  0  0  0  0
   10.1996   -7.0393    0.0000 C   0  0  1  0  0  0  0  0  0  0  0  0
    9.4851   -6.6268    0.0000 C   0  0  0  0  0  0  0  0  0  0  0  0
   10.9141   -6.6268    0.0000 C   0  0  0  0  0  0  0  0  0  0  0  0
   10.9141   -5.8019    0.0000 C   0  0  0  0  0  0  0  0  0  0  0  0
   10.1996   -5.3894    0.0000 C   0  0  1  0  0  0  0  0  0  0  0  0
    9.4851   -5.8019    0.0000 C   0  0  0  0  0  0  0  0  0  0  0  0
    4.4840   -9.5143    0.0000 O   0  0  0  0  0  0  0  0  0  0  0  0
    4.4840  -10.3392    0.0000 C   0  0  1  0  0  0  0  0  0  0  0  0
    5.1985  -10.7517    0.0000 O   0  0  0  0  0  0  0  0  0  0  0  0
    5.9129  -10.3392    0.0000 C   0  0  0  0  0  0  0  0  0  0  0  0
    5.1985   -9.9267    0.0000 C   0  0  0  0  0  0  0  0  0  0  0  0
    3.6590  -10.3392    0.0000 C   0  0  0  0  0  0  0  0  0  0  0  0
    6.6273   -7.4518    0.0000 C   0  0  0  0  0  0  0  0  0  0  0  0
    8.0563   -7.4518    0.0000 C   0  0  0  0  0  0  0  0  0  0  0  0
    9.7871   -4.6750    0.0000 C   0  0  0  0  0  0  0  0  0  0  0  0
   10.6121   -4.6750    0.0000 C   0  0  0  0  0  0  0  0  0  0  0  0
    8.7708   -8.6893    0.0000 C   0  0  0  0  0  0  0  0  0  0  0  0
    4.4840   -7.8643    0.0000 H   0  0  0  0  0  0  0  0  0  0  0  0
    4.0715  -11.0537    0.0000 C   0  0  0  0  0  0  0  0  0  0  0  0
  4  5  1  0  0  0  0
  5  6  1  0  0  0  0
  6  7  1  0  0  0  0
  7  8  1  0  0  0  0
  8  9  1  0  0  0  0
  9  4  1  0  0  0  0
  7 10  1  0  0  0  0
 10 11  1  0  0  0  0
 11 12  1  0  0  0  0
 12 13  1  0  0  0  0
 13  8  1  0  0  0  0
 12 14  1  0  0  0  0
 14 15  1  0  0  0  0
 15 16  2  0  0  0  0
 16 17  1  0  0  0  0
 17 13  1  0  0  0  0
 14 18  1  0  0  0  0
 18 19  1  0  0  0  0
 19 20  1  0  0  0  0
 20 21  1  0  0  0  0
 21 15  1  0  0  0  0
 20 22  1  0  0  0  0
 22 23  1  0  0  0  0
 23 24  1  0  0  0  0
 24 25  1  0  0  0  0
 25 21  1  0  0  0  0
  5 26  1  1  0  0  0
 26 27  1  0  0  0  0
 27 28  1  0  0  0  0
 28 29  1  0  0  0  0
  6 29  1  6  0  0  0
  6 30  1  1  0  0  0
 27 31  1  1  0  0  0
  8 32  1  1  0  0  0
 12 33  1  1  0  0  0
 20  1  1  1  0  0  0
 24 34  1  1  0  0  0
 24 35  1  6  0  0  0
 14 36  1  6  0  0  0
  4 37  1  6  0  0  0
 27 38  1  6  0  0  0
  1  2  2  0  0  0  0
  1  3  1  0  0  0  0
M  STY  1   1 SUP
M  SAL   1  3   1   2   3
M  SBL   1  1  36
M  SMT   1 COOH
M  SAP   1  1   1  20  1
M  END
>  <cdx:fragmentId>
1

$$$$
