98710.cdx
  Mrv1902 05222410272D          

 33 32  0  0  0  0            999 V2000
    3.7401   -8.1400    0.0000 O   0  0  0  0  0  0  0  0  0  0  0  0
    4.2403   -7.8512    0.0000 C   0  0  0  0  0  0  0  0  0  0  0  0
    4.7404   -8.1400    0.0000 C   0  0  0  0  0  0  0  0  0  0  0  0
    5.2405   -7.8512    0.0000 C   0  0  0  0  0  0  0  0  0  0  0  0
    5.7406   -8.1400    0.0000 O   0  0  0  0  0  0  0  0  0  0  0  0
    6.2408   -7.8512    0.0000 C   0  0  0  0  0  0  0  0  0  0  0  0
    6.7409   -8.1400    0.0000 C   0  0  0  0  0  0  0  0  0  0  0  0
    7.2410   -7.8512    0.0000 C   0  0  0  0  0  0  0  0  0  0  0  0
    7.7412   -8.1400    0.0000 C   0  0  0  0  0  0  0  0  0  0  0  0
    8.2413   -7.8512    0.0000 C   0  0  0  0  0  0  0  0  0  0  0  0
    8.7414   -8.1400    0.0000 C   0  0  0  0  0  0  0  0  0  0  0  0
    9.2416   -7.8512    0.0000 C   0  0  0  0  0  0  0  0  0  0  0  0
    9.7417   -8.1400    0.0000 C   0  0  0  0  0  0  0  0  0  0  0  0
   10.2418   -7.8512    0.0000 C   0  0  0  0  0  0  0  0  0  0  0  0
   10.7419   -8.1400    0.0000 C   0  0  0  0  0  0  0  0  0  0  0  0
   11.2421   -7.8512    0.0000 C   0  0  0  0  0  0  0  0  0  0  0  0
   11.7422   -8.1400    0.0000 C   0  0  0  0  0  0  0  0  0  0  0  0
   12.2423   -7.8512    0.0000 C   0  0  0  0  0  0  0  0  0  0  0  0
   12.7425   -8.1400    0.0000 C   0  0  0  0  0  0  0  0  0  0  0  0
   13.2426   -7.8512    0.0000 C   0  0  0  0  0  0  0  0  0  0  0  0
   13.7427   -8.1400    0.0000 C   0  0  0  0  0  0  0  0  0  0  0  0
    0.5009   -7.8444    0.0000 C   0  0  0  0  0  0  0  0  0  0  0  0
    1.0784   -7.8444    0.0000 N   0  3  0  0  0  0  0  0  0  0  0  0
    1.0784   -7.2669    0.0000 C   0  0  0  0  0  0  0  0  0  0  0  0
    1.0784   -8.4219    0.0000 C   0  0  0  0  0  0  0  0  0  0  0  0
    1.5785   -8.1331    0.0000 C   0  0  0  0  0  0  0  0  0  0  0  0
    2.0786   -7.8444    0.0000 C   0  0  0  0  0  0  0  0  0  0  0  0
    2.5788   -8.1331    0.0000 O   0  0  0  0  0  0  0  0  0  0  0  0
    3.1563   -8.1331    0.0000 P   0  0  0  0  0  0  0  0  0  0  0  0
    3.1563   -7.5556    0.0000 O   0  0  0  0  0  0  0  0  0  0  0  0
    3.1563   -8.7106    0.0000 O   0  5  0  0  0  0  0  0  0  0  0  0
    4.7404   -8.7175    0.0000 O   0  0  0  0  0  0  0  0  0  0  0  0
    6.2408   -7.2738    0.0000 O   0  0  0  0  0  0  0  0  0  0  0  0
  1  2  1  0  0  0  0
  2  3  1  0  0  0  0
  3  4  1  0  0  0  0
  4  5  1  0  0  0  0
  5  6  1  0  0  0  0
  6  7  1  0  0  0  0
  7  8  1  0  0  0  0
  8  9  1  0  0  0  0
  9 10  1  0  0  0  0
 10 11  1  0  0  0  0
 11 12  1  0  0  0  0
 12 13  1  0  0  0  0
 13 14  1  0  0  0  0
 14 15  1  0  0  0  0
 15 16  1  0  0  0  0
 16 17  1  0  0  0  0
 17 18  1  0  0  0  0
 18 19  1  0  0  0  0
 19 20  1  0  0  0  0
 20 21  1  0  0  0  0
 22 23  1  0  0  0  0
 23 24  1  0  0  0  0
 23 25  1  0  0  0  0
 23 26  1  0  0  0  0
 26 27  1  0  0  0  0
 27 28  1  0  0  0  0
 28 29  1  0  0  0  0
 29 30  2  0  0  0  0
 29 31  1  0  0  0  0
  3 32  1  0  0  0  0
  6 33  2  0  0  0  0
 29  1  1  0  0  0  0
M  CHG  2  23   1  31  -1
M  END
>  <cdx:fragmentId>
3

$$$$
