98717.cdx
  Mrv1902 05222410262D          

 11 11  0  0  0  0            999 V2000
    5.8349   -7.9750    0.0000 C   0  0  0  0  0  0  0  0  0  0  0  0
    5.8349   -8.8000    0.0000 C   0  0  0  0  0  0  0  0  0  0  0  0
    6.5494   -9.2125    0.0000 C   0  0  2  0  0  0  0  0  0  0  0  0
    7.2639   -8.8000    0.0000 C   0  0  0  0  0  0  0  0  0  0  0  0
    7.2639   -7.9750    0.0000 C   0  0  1  0  0  0  0  0  0  0  0  0
    6.5494   -7.5625    0.0000 C   0  0  0  0  0  0  0  0  0  0  0  0
    6.5494   -6.7375    0.0000 C   0  0  0  0  0  0  0  0  0  0  0  0
    7.9783   -7.5625    0.0000 O   0  0  0  0  0  0  0  0  0  0  0  0
    6.5494  -10.0375    0.0000 C   0  0  0  0  0  0  0  0  0  0  0  0
    7.2639  -10.4500    0.0000 C   0  0  0  0  0  0  0  0  0  0  0  0
    5.8349  -10.4500    0.0000 C   0  0  0  0  0  0  0  0  0  0  0  0
  1  2  1  0  0  0  0
  2  3  1  0  0  0  0
  3  4  1  0  0  0  0
  4  5  1  0  0  0  0
  5  6  1  0  0  0  0
  6  1  2  0  0  0  0
  6  7  1  0  0  0  0
  5  8  1  1  0  0  0
  3  9  1  6  0  0  0
  9 10  2  0  0  0  0
  9 11  1  0  0  0  0
M  END
>  <cdx:fragmentId>
5

$$$$
