98711.cdx
  Mrv1902 05222410272D          

 40 43  0  0  0  0            999 V2000
    8.6262   -6.3113    0.0000 C   0  0  0  0  0  0  0  0  0  0  0  0
    8.6262   -7.1362    0.0000 C   0  0  0  0  0  0  0  0  0  0  0  0
    9.3406   -7.5488    0.0000 C   0  0  0  0  0  0  0  0  0  0  0  0
   10.0551   -7.1362    0.0000 C   0  0  0  0  0  0  0  0  0  0  0  0
   10.0551   -6.3113    0.0000 C   0  0  0  0  0  0  0  0  0  0  0  0
    9.3406   -5.8988    0.0000 C   0  0  0  0  0  0  0  0  0  0  0  0
   10.8397   -7.3912    0.0000 C   0  0  0  0  0  0  0  0  0  0  0  0
   11.3247   -6.7237    0.0000 C   0  0  1  0  0  0  0  0  0  0  0  0
   10.8397   -6.0563    0.0000 C   0  0  0  0  0  0  0  0  0  0  0  0
   11.0947   -5.2717    0.0000 O   0  0  0  0  0  0  0  0  0  0  0  0
    9.3406   -5.0737    0.0000 C   0  0  0  0  0  0  0  0  0  0  0  0
    7.9117   -7.5488    0.0000 C   0  0  0  0  0  0  0  0  0  0  0  0
    9.3406   -8.3737    0.0000 O   0  0  0  0  0  0  0  0  0  0  0  0
    7.9117   -5.8988    0.0000 C   0  0  0  0  0  0  0  0  0  0  0  0
    7.1972   -6.3113    0.0000 C   0  0  0  0  0  0  0  0  0  0  0  0
    6.4828   -5.8988    0.0000 O   0  0  0  0  0  0  0  0  0  0  0  0
   12.0391   -6.3113    0.0000 C   0  0  0  0  0  0  0  0  0  0  0  0
    5.7683   -6.3113    0.0000 C   0  0  2  0  0  0  0  0  0  0  0  0
    5.0538   -5.8988    0.0000 O   0  0  0  0  0  0  0  0  0  0  0  0
    4.3394   -6.3113    0.0000 C   0  0  1  0  0  0  0  0  0  0  0  0
    4.3394   -7.1362    0.0000 C   0  0  2  0  0  0  0  0  0  0  0  0
    5.0538   -7.5488    0.0000 C   0  0  1  0  0  0  0  0  0  0  0  0
    5.7683   -7.1362    0.0000 C   0  0  1  0  0  0  0  0  0  0  0  0
    8.6262   -8.7862    0.0000 C   0  0  2  0  0  0  0  0  0  0  0  0
    7.9117   -8.3737    0.0000 O   0  0  0  0  0  0  0  0  0  0  0  0
    7.1972   -8.7862    0.0000 C   0  0  1  0  0  0  0  0  0  0  0  0
    7.1972   -9.6112    0.0000 C   0  0  2  0  0  0  0  0  0  0  0  0
    7.9117  -10.0237    0.0000 C   0  0  1  0  0  0  0  0  0  0  0  0
    8.6262   -9.6112    0.0000 C   0  0  1  0  0  0  0  0  0  0  0  0
    3.6249   -5.8988    0.0000 C   0  0  0  0  0  0  0  0  0  0  0  0
    5.0538   -8.3737    0.0000 O   0  0  0  0  0  0  0  0  0  0  0  0
    3.6249   -7.5488    0.0000 O   0  0  0  0  0  0  0  0  0  0  0  0
    6.4828   -7.5488    0.0000 O   0  0  0  0  0  0  0  0  0  0  0  0
    2.9104   -6.3113    0.0000 O   0  0  0  0  0  0  0  0  0  0  0  0
    9.3406  -10.0238    0.0000 O   0  0  0  0  0  0  0  0  0  0  0  0
    6.4828  -10.0238    0.0000 O   0  0  0  0  0  0  0  0  0  0  0  0
    6.4828   -8.3737    0.0000 C   0  0  0  0  0  0  0  0  0  0  0  0
    7.9117  -10.8488    0.0000 O   0  0  0  0  0  0  0  0  0  0  0  0
    5.7683   -8.7862    0.0000 O   0  0  0  0  0  0  0  0  0  0  0  0
   11.9080   -7.3071    0.0000 C   0  0  0  0  0  0  0  0  0  0  0  0
  1  2  2  0  0  0  0
  2  3  1  0  0  0  0
  3  4  2  0  0  0  0
  4  5  1  0  0  0  0
  5  6  2  0  0  0  0
  6  1  1  0  0  0  0
  4  7  1  0  0  0  0
  7  8  1  0  0  0  0
  8  9  1  0  0  0  0
  9  5  1  0  0  0  0
  9 10  2  0  0  0  0
  6 11  1  0  0  0  0
  2 12  1  0  0  0  0
  3 13  1  0  0  0  0
  1 14  1  0  0  0  0
 14 15  1  0  0  0  0
 15 16  1  0  0  0  0
  8 17  1  1  0  0  0
 18 16  1  1  0  0  0
 18 19  1  0  0  0  0
 19 20  1  0  0  0  0
 20 21  1  0  0  0  0
 21 22  1  0  0  0  0
 22 23  1  0  0  0  0
 23 18  1  0  0  0  0
 24 13  1  1  0  0  0
 24 25  1  0  0  0  0
 25 26  1  0  0  0  0
 26 27  1  0  0  0  0
 27 28  1  0  0  0  0
 28 29  1  0  0  0  0
 29 24  1  0  0  0  0
 20 30  1  1  0  0  0
 22 31  1  1  0  0  0
 21 32  1  6  0  0  0
 23 33  1  6  0  0  0
 30 34  1  0  0  0  0
 29 35  1  6  0  0  0
 27 36  1  6  0  0  0
 26 37  1  1  0  0  0
 28 38  1  1  0  0  0
 37 39  1  0  0  0  0
  8 40  1  6  0  0  0
M  END
>  <cdx:fragmentId>
5

$$$$
