9872.cdx
  Mrv1902 05222410202D          

 25 26  0  0  0  0            999 V2000
    7.1098   -5.2857    0.0000 C   0  0  0  0  0  0  0  0  0  0  0  0
    7.8363   -4.8948    0.0000 C   0  0  0  0  0  0  0  0  0  0  0  0
    8.5381   -5.3285    0.0000 C   0  0  0  0  0  0  0  0  0  0  0  0
    9.2646   -4.9375    0.0000 C   0  0  0  0  0  0  0  0  0  0  0  0
    9.9664   -5.3712    0.0000 C   0  0  0  0  0  0  0  0  0  0  0  0
   10.6929   -4.9803    0.0000 C   0  0  0  0  0  0  0  0  0  0  0  0
   11.3947   -5.4140    0.0000 C   0  0  0  0  0  0  0  0  0  0  0  0
   11.3700   -6.2386    0.0000 C   0  0  0  0  0  0  0  0  0  0  0  0
   10.6435   -6.6295    0.0000 C   0  0  0  0  0  0  0  0  0  0  0  0
    9.9417   -6.1958    0.0000 C   0  0  0  0  0  0  0  0  0  0  0  0
   12.0718   -6.6723    0.0000 O   0  0  0  0  0  0  0  0  0  0  0  0
    7.8610   -4.0701    0.0000 O   0  0  0  0  0  0  0  0  0  0  0  0
    6.3985   -4.0464    0.0000 O   0  0  0  0  0  0  0  0  0  0  0  0
    6.3964   -4.8714    0.0000 C   0  0  0  0  0  0  0  0  0  0  0  0
    5.6808   -5.2820    0.0000 C   0  0  0  0  0  0  0  0  0  0  0  0
    4.9674   -4.8677    0.0000 C   0  0  0  0  0  0  0  0  0  0  0  0
    2.1053   -6.5103    0.0000 O   0  0  0  0  0  0  0  0  0  0  0  0
    2.8230   -5.2746    0.0000 C   0  0  0  0  0  0  0  0  0  0  0  0
    3.5385   -4.8640    0.0000 C   0  0  0  0  0  0  0  0  0  0  0  0
    4.2519   -5.2783    0.0000 C   0  0  0  0  0  0  0  0  0  0  0  0
    4.2498   -6.1033    0.0000 C   0  0  0  0  0  0  0  0  0  0  0  0
    3.5342   -6.5140    0.0000 C   0  0  0  0  0  0  0  0  0  0  0  0
    2.8208   -6.0996    0.0000 C   0  0  0  0  0  0  0  0  0  0  0  0
   12.1212   -5.0230    0.0000 O   0  0  0  0  0  0  0  0  0  0  0  0
   12.8230   -5.4567    0.0000 C   0  0  0  0  0  0  0  0  0  0  0  0
  1  2  1  0  0  0  0
  2  3  1  0  0  0  0
  3  4  2  0  0  0  0
  4  5  1  0  0  0  0
  5  6  2  0  0  0  0
  6  7  1  0  0  0  0
  7  8  2  0  0  0  0
  8  9  1  0  0  0  0
  9 10  2  0  0  0  0
 10  5  1  0  0  0  0
  8 11  1  0  0  0  0
 14  1  1  0  0  0  0
  2 12  2  0  0  0  0
 14 13  2  0  0  0  0
 15 14  1  0  0  0  0
 16 15  1  0  0  0  0
 20 16  1  0  0  0  0
 23 17  1  0  0  0  0
 18 23  1  0  0  0  0
 19 18  2  0  0  0  0
 20 19  1  0  0  0  0
 21 20  2  0  0  0  0
 22 21  1  0  0  0  0
 23 22  2  0  0  0  0
  7 24  1  0  0  0  0
 24 25  1  0  0  0  0
M  END
>  <cdx:fragmentId>
90

$$$$
