987253.cdx
  Mrv1902 05222410222D          

 25 28  0  0  0  0            999 V2000
    7.0764   -8.9691    0.0000 H   0  0  0  0  0  0  0  0  0  0  0  0
    6.3761  -10.2114    0.0000 H   0  0  0  0  0  0  0  0  0  0  0  0
   10.2357   -7.1498    0.0000 O   0  0  0  0  0  0  0  0  0  0  0  0
    9.4389   -6.9363    0.0000 C   0  0  0  0  0  0  0  0  0  0  0  0
    6.0762  -10.5155    0.0000 C   0  0  0  0  0  0  0  0  0  0  0  0
    5.2512  -10.5211    0.0000 C   0  0  0  0  0  0  0  0  0  0  0  0
    6.3648   -7.7365    0.0000 C   0  0  0  0  0  0  0  0  0  0  0  0
    9.5674   -7.7512    0.0000 O   0  0  0  0  0  0  0  0  0  0  0  0
    4.2299   -9.8136    0.0000 O   0  0  0  0  0  0  0  0  0  0  0  0
    7.6175   -7.5350    0.0000 C   0  0  0  0  0  0  0  0  0  0  0  0
    8.5596   -8.2450    0.0000 C   0  0  0  0  0  0  0  0  0  0  0  0
    8.7974   -7.4551    0.0000 C   0  0  1  0  0  0  0  0  0  0  0  0
    8.3280   -6.7766    0.0000 C   0  0  0  0  0  0  0  0  0  0  0  0
    7.5049   -6.7206    0.0000 C   0  0  0  0  0  0  0  0  0  0  0  0
    6.9479   -7.3292    0.0000 C   0  0  0  0  0  0  0  0  0  0  0  0
    7.0764   -8.1441    0.0000 C   0  0  1  0  0  0  0  0  0  0  0  0
    6.3648   -8.5615    0.0000 C   0  0  1  0  0  0  0  0  0  0  0  0
    5.6475   -8.1539    0.0000 C   0  0  0  0  0  0  0  0  0  0  0  0
    4.9359   -8.5712    0.0000 C   0  0  0  0  0  0  0  0  0  0  0  0
    4.9415   -9.3962    0.0000 C   0  0  2  0  0  0  0  0  0  0  0  0
    5.6588   -9.8038    0.0000 C   0  0  0  0  0  0  0  0  0  0  0  0
    6.3704   -9.3864    0.0000 C   0  0  1  0  0  0  0  0  0  0  0  0
    7.0877   -9.7941    0.0000 C   0  0  0  0  0  0  0  0  0  0  0  0
    7.7993   -9.3767    0.0000 C   0  0  0  0  0  0  0  0  0  0  0  0
    7.7937   -8.5517    0.0000 C   0  0  1  0  0  0  0  0  0  0  0  0
 16  1  1  1  0  0  0
 22  2  1  1  0  0  0
 12  4  1  1  0  0  0
  4  3  1  0  0  0  0
 21  5  1  0  0  0  0
 21  6  1  0  0  0  0
 17  7  1  6  0  0  0
 12  8  1  6  0  0  0
 20  9  1  6  0  0  0
 22 17  1  0  0  0  0
 25 16  1  0  0  0  0
 10 13  1  0  0  0  0
 25 10  1  6  0  0  0
 25 11  1  0  0  0  0
 12 11  1  0  0  0  0
 13 12  1  0  0  0  0
 14 13  1  0  0  0  0
 15 14  1  0  0  0  0
 16 15  1  0  0  0  0
 17 16  1  0  0  0  0
 18 17  1  0  0  0  0
 19 18  1  0  0  0  0
 20 19  1  0  0  0  0
 21 20  1  0  0  0  0
 22 21  1  0  0  0  0
 23 22  1  0  0  0  0
 24 23  1  0  0  0  0
 25 24  1  0  0  0  0
M  END
>  <cdx:groupId>
8580

>  <cdx:fragmentId>
8505

$$$$
