98727.cdx
  Mrv1902 05222410202D          

110121  0  0  0  0            999 V2000
   14.3808  -13.1450    0.0000 C   0  0  1  0  0  0  0  0  0  0  0  0
   14.3808  -12.3200    0.0000 C   0  0  0  0  0  0  0  0  0  0  0  0
   15.0953  -11.9075    0.0000 C   0  0  0  0  0  0  0  0  0  0  0  0
   15.0953  -13.5575    0.0000 C   0  0  0  0  0  0  0  0  0  0  0  0
   15.8097  -13.1450    0.0000 C   0  0  0  0  0  0  0  0  0  0  0  0
   16.5242  -13.5575    0.0000 C   0  0  0  0  0  0  0  0  0  0  0  0
   17.2387  -13.1450    0.0000 C   0  0  0  0  0  0  0  0  0  0  0  0
   17.2387  -12.3200    0.0000 C   0  0  1  0  0  0  0  0  0  0  0  0
   17.9532  -11.9075    0.0000 C   0  0  2  0  0  0  0  0  0  0  0  0
   18.7378  -12.1624    0.0000 C   0  0  0  0  0  0  0  0  0  0  0  0
   19.2227  -11.4950    0.0000 C   0  0  2  0  0  0  0  0  0  0  0  0
   19.7076  -12.1624    0.0000 H   0  0  0  0  0  0  0  0  0  0  0  0
   20.0073  -11.2401    0.0000 O   0  0  0  0  0  0  0  0  0  0  0  0
   18.7378  -10.8276    0.0000 C   0  0  2  0  0  0  0  0  0  0  0  0
   18.3761  -10.0861    0.0000 H   0  0  0  0  0  0  0  0  0  0  0  0
   19.2227  -10.1601    0.0000 C   0  0  0  0  0  0  0  0  0  0  0  0
   20.0073  -10.4151    0.0000 C   0  0  0  0  0  0  0  0  0  0  0  0
   20.8278  -10.3288    0.0000 C   0  0  0  0  0  0  0  0  0  0  0  0
   21.3127  -10.9963    0.0000 C   0  0  0  0  0  0  0  0  0  0  0  0
   22.1332  -10.9100    0.0000 C   0  0  2  0  0  0  0  0  0  0  0  0
   22.6181  -11.5775    0.0000 C   0  0  0  0  0  0  0  0  0  0  0  0
   17.9532  -11.0825    0.0000 C   0  0  2  0  0  0  0  0  0  0  0  0
   17.9532  -10.2575    0.0000 C   0  0  0  0  0  0  0  0  0  0  0  0
   17.2387  -10.6700    0.0000 C   0  0  0  0  0  0  0  0  0  0  0  0
   16.5242  -11.0825    0.0000 C   0  0  0  0  0  0  0  0  0  0  0  0
   16.5242  -11.9075    0.0000 C   0  0  2  0  0  0  0  0  0  0  0  0
   15.8097  -12.3200    0.0000 C   0  0  1  0  0  0  0  0  0  0  0  0
   15.8097  -11.4950    0.0000 C   0  0  0  0  0  0  0  0  0  0  0  0
   16.5242  -12.7325    0.0000 H   0  0  0  0  0  0  0  0  0  0  0  0
   17.2387  -11.4950    0.0000 H   0  0  0  0  0  0  0  0  0  0  0  0
   17.9532  -12.7325    0.0000 H   0  0  0  0  0  0  0  0  0  0  0  0
   13.6663  -13.5575    0.0000 O   0  0  0  0  0  0  0  0  0  0  0  0
   12.2371  -11.8933    0.0000 C   0  0  2  0  0  0  0  0  0  0  0  0
   11.5209  -12.3029    0.0000 C   0  0  2  0  0  0  0  0  0  0  0  0
   11.5176  -13.1278    0.0000 C   0  0  1  0  0  0  0  0  0  0  0  0
   12.2303  -13.5433    0.0000 C   0  0  2  0  0  0  0  0  0  0  0  0
   12.9465  -13.1337    0.0000 C   0  0  1  0  0  0  0  0  0  0  0  0
   12.9499  -12.3087    0.0000 O   0  0  0  0  0  0  0  0  0  0  0  0
   12.2405  -11.0683    0.0000 C   0  0  0  0  0  0  0  0  0  0  0  0
   10.8014  -13.5374    0.0000 O   0  0  0  0  0  0  0  0  0  0  0  0
   10.8082  -11.8874    0.0000 O   0  0  0  0  0  0  0  0  0  0  0  0
   12.2270  -14.3683    0.0000 O   0  0  0  0  0  0  0  0  0  0  0  0
   12.9549  -10.6558    0.0000 O   0  0  0  0  0  0  0  0  0  0  0  0
   23.4386  -11.4912    0.0000 O   0  0  0  0  0  0  0  0  0  0  0  0
   23.9235  -12.1587    0.0000 C   0  0  2  0  0  0  0  0  0  0  0  0
   23.5880  -12.9123    0.0000 O   0  0  0  0  0  0  0  0  0  0  0  0
   24.0729  -13.5798    0.0000 C   0  0  1  0  0  0  0  0  0  0  0  0
   24.8934  -13.4935    0.0000 C   0  0  2  0  0  0  0  0  0  0  0  0
   25.2289  -12.7399    0.0000 C   0  0  1  0  0  0  0  0  0  0  0  0
   24.7440  -12.0724    0.0000 C   0  0  1  0  0  0  0  0  0  0  0  0
   23.7373  -14.3335    0.0000 C   0  0  0  0  0  0  0  0  0  0  0  0
   26.0494  -12.6536    0.0000 O   0  0  0  0  0  0  0  0  0  0  0  0
   25.0796  -11.3188    0.0000 O   0  0  0  0  0  0  0  0  0  0  0  0
   25.3783  -14.1610    0.0000 O   0  0  0  0  0  0  0  0  0  0  0  0
   24.2223  -15.0009    0.0000 O   0  0  0  0  0  0  0  0  0  0  0  0
   22.4688  -10.1563    0.0000 C   0  0  0  0  0  0  0  0  0  0  0  0
   11.8190  -15.0853    0.0000 C   0  0  2  0  0  0  0  0  0  0  0  0
   10.9940  -15.0872    0.0000 O   0  0  0  0  0  0  0  0  0  0  0  0
   10.5891  -15.8126    0.0000 C   0  0  2  0  0  0  0  0  0  0  0  0
   11.0090  -16.5227    0.0000 C   0  0  1  0  0  0  0  0  0  0  0  0
   11.8398  -16.5175    0.0000 C   0  0  2  0  0  0  0  0  0  0  0  0
   12.2389  -15.7954    0.0000 C   0  0  1  0  0  0  0  0  0  0  0  0
   10.6025  -17.2407    0.0000 O   0  0  0  0  0  0  0  0  0  0  0  0
    9.7641  -15.8229    0.0000 C   0  0  0  0  0  0  0  0  0  0  0  0
   12.2612  -17.2267    0.0000 O   0  0  0  0  0  0  0  0  0  0  0  0
   13.0638  -15.7835    0.0000 O   0  0  0  0  0  0  0  0  0  0  0  0
   18.9678   -9.3755    0.0000 C   0  0  0  0  0  0  0  0  0  0  0  0
   21.9838   -9.4889    0.0000 O   0  0  0  0  0  0  0  0  0  0  0  0
   10.8051  -11.0624    0.0000 C   0  0  2  0  0  0  0  0  0  0  0  0
   11.5197  -10.6502    0.0000 O   0  0  0  0  0  0  0  0  0  0  0  0
   11.5099   -9.8195    0.0000 C   0  0  1  0  0  0  0  0  0  0  0  0
   10.7923   -9.4126    0.0000 C   0  0  2  0  0  0  0  0  0  0  0  0
   10.0743   -9.8306    0.0000 C   0  0  1  0  0  0  0  0  0  0  0  0
   10.0875  -10.6555    0.0000 C   0  0  1  0  0  0  0  0  0  0  0  0
   10.7875   -8.5876    0.0000 O   0  0  0  0  0  0  0  0  0  0  0  0
    9.3558   -9.4252    0.0000 O   0  0  0  0  0  0  0  0  0  0  0  0
   12.2203   -9.4000    0.0000 C   0  0  0  0  0  0  0  0  0  0  0  0
    9.3780  -11.0765    0.0000 O   0  0  0  0  0  0  0  0  0  0  0  0
   12.2122   -8.5750    0.0000 O   0  0  0  0  0  0  0  0  0  0  0  0
    8.5310   -9.4437    0.0000 C   0  0  2  0  0  0  0  0  0  0  0  0
    8.1084   -8.7352    0.0000 O   0  0  0  0  0  0  0  0  0  0  0  0
    7.2843   -8.7679    0.0000 C   0  0  1  0  0  0  0  0  0  0  0  0
    6.8829   -9.5092    0.0000 C   0  0  2  0  0  0  0  0  0  0  0  0
    7.3055  -10.2178    0.0000 C   0  0  1  0  0  0  0  0  0  0  0  0
    8.1296  -10.1850    0.0000 C   0  0  1  0  0  0  0  0  0  0  0  0
    6.8481   -8.0677    0.0000 C   0  0  0  0  0  0  0  0  0  0  0  0
    6.9124  -10.9431    0.0000 O   0  0  0  0  0  0  0  0  0  0  0  0
    8.5658  -10.8853    0.0000 O   0  0  0  0  0  0  0  0  0  0  0  0
    6.0580   -9.5263    0.0000 O   0  0  0  0  0  0  0  0  0  0  0  0
    6.0231   -8.0677    0.0000 O   0  0  0  0  0  0  0  0  0  0  0  0
    5.3523   -9.9536    0.0000 C   0  0  2  0  0  0  0  0  0  0  0  0
    4.6371   -9.5423    0.0000 O   0  0  0  0  0  0  0  0  0  0  0  0
    3.9233   -9.9561    0.0000 C   0  0  0  0  0  0  0  0  0  0  0  0
    3.9248  -10.7811    0.0000 C   0  0  2  0  0  0  0  0  0  0  0  0
    4.6400  -11.1923    0.0000 C   0  0  1  0  0  0  0  0  0  0  0  0
    5.3537  -10.7786    0.0000 C   0  0  1  0  0  0  0  0  0  0  0  0
    6.0689  -11.1898    0.0000 O   0  0  0  0  0  0  0  0  0  0  0  0
    4.6414  -12.0173    0.0000 O   0  0  0  0  0  0  0  0  0  0  0  0
    3.2110  -11.1948    0.0000 O   0  0  0  0  0  0  0  0  0  0  0  0
    5.0934  -12.7075    0.0000 C   0  0  2  0  0  0  0  0  0  0  0  0
    4.6941  -13.4294    0.0000 O   0  0  0  0  0  0  0  0  0  0  0  0
    5.1196  -14.1362    0.0000 C   0  0  1  0  0  0  0  0  0  0  0  0
    5.9444  -14.1211    0.0000 C   0  0  2  0  0  0  0  0  0  0  0  0
    6.3438  -13.3992    0.0000 C   0  0  1  0  0  0  0  0  0  0  0  0
    5.9183  -12.6924    0.0000 C   0  0  1  0  0  0  0  0  0  0  0  0
    4.7202  -14.8581    0.0000 C   0  0  0  0  0  0  0  0  0  0  0  0
    7.1687  -13.3841    0.0000 O   0  0  0  0  0  0  0  0  0  0  0  0
    6.3177  -11.9705    0.0000 O   0  0  0  0  0  0  0  0  0  0  0  0
    6.3699  -14.8279    0.0000 O   0  0  0  0  0  0  0  0  0  0  0  0
    5.1457  -15.5649    0.0000 O   0  0  0  0  0  0  0  0  0  0  0  0
  1  2  1  0  0  0  0
  2  3  1  0  0  0  0
  1  4  1  0  0  0  0
  4  5  1  0  0  0  0
  5  6  2  0  0  0  0
  6  7  1  0  0  0  0
  7  8  1  0  0  0  0
  8  9  1  0  0  0  0
  9 10  1  0  0  0  0
 10 11  1  0  0  0  0
 11 12  1  6  0  0  0
 11 13  1  0  0  0  0
 11 14  1  0  0  0  0
 14 15  1  6  0  0  0
 14 16  1  0  0  0  0
 16 17  2  0  0  0  0
 13 17  1  0  0  0  0
 17 18  1  0  0  0  0
 18 19  1  0  0  0  0
 19 20  1  0  0  0  0
 20 21  1  0  0  0  0
 14 22  1  0  0  0  0
  9 22  1  0  0  0  0
 22 23  1  1  0  0  0
 22 24  1  0  0  0  0
 24 25  1  0  0  0  0
 25 26  1  0  0  0  0
  8 26  1  0  0  0  0
 26 27  1  0  0  0  0
  3 27  1  0  0  0  0
  5 27  1  0  0  0  0
 27 28  1  1  0  0  0
 26 29  1  6  0  0  0
  8 30  1  1  0  0  0
  9 31  1  6  0  0  0
  1 32  1  1  0  0  0
 33 34  1  0  0  0  0
 34 35  1  0  0  0  0
 35 36  1  0  0  0  0
 36 37  1  0  0  0  0
 37 38  1  0  0  0  0
 38 33  1  0  0  0  0
 33 39  1  1  0  0  0
 35 40  1  1  0  0  0
 34 41  1  6  0  0  0
 36 42  1  6  0  0  0
 39 43  1  0  0  0  0
 37 32  1  1  0  0  0
 21 44  1  0  0  0  0
 45 44  1  1  0  0  0
 45 46  1  0  0  0  0
 46 47  1  0  0  0  0
 47 48  1  0  0  0  0
 48 49  1  0  0  0  0
 49 50  1  0  0  0  0
 50 45  1  0  0  0  0
 47 51  1  1  0  0  0
 49 52  1  1  0  0  0
 50 53  1  6  0  0  0
 48 54  1  6  0  0  0
 51 55  1  0  0  0  0
 20 56  1  1  0  0  0
 57 42  1  1  0  0  0
 57 58  1  0  0  0  0
 58 59  1  0  0  0  0
 59 60  1  0  0  0  0
 60 61  1  0  0  0  0
 61 62  1  0  0  0  0
 62 57  1  0  0  0  0
 60 63  1  1  0  0  0
 59 64  1  6  0  0  0
 61 65  1  6  0  0  0
 62 66  1  6  0  0  0
 16 67  1  6  0  0  0
 56 68  1  0  0  0  0
 69 41  1  1  0  0  0
 69 70  1  0  0  0  0
 70 71  1  0  0  0  0
 71 72  1  0  0  0  0
 72 73  1  0  0  0  0
 73 74  1  0  0  0  0
 74 69  1  0  0  0  0
 72 75  1  6  0  0  0
 73 76  1  1  0  0  0
 71 77  1  1  0  0  0
 74 78  1  6  0  0  0
 77 79  1  0  0  0  0
 80 76  1  1  0  0  0
 80 81  1  0  0  0  0
 81 82  1  0  0  0  0
 82 83  1  0  0  0  0
 83 84  1  0  0  0  0
 84 85  1  0  0  0  0
 85 80  1  0  0  0  0
 82 86  1  1  0  0  0
 84 87  1  1  0  0  0
 85 88  1  6  0  0  0
 83 89  1  6  0  0  0
 86 90  1  0  0  0  0
 91 89  1  1  0  0  0
 91 92  1  0  0  0  0
 92 93  1  0  0  0  0
 93 94  1  0  0  0  0
 94 95  1  0  0  0  0
 95 96  1  0  0  0  0
 96 91  1  0  0  0  0
 96 97  1  6  0  0  0
 95 98  1  1  0  0  0
 94 99  1  6  0  0  0
100 98  1  1  0  0  0
100101  1  0  0  0  0
101102  1  0  0  0  0
102103  1  0  0  0  0
103104  1  0  0  0  0
104105  1  0  0  0  0
105100  1  0  0  0  0
102106  1  1  0  0  0
104107  1  1  0  0  0
105108  1  6  0  0  0
103109  1  6  0  0  0
106110  1  0  0  0  0
M  END
>  <cdx:fragmentId>
5

$$$$
