98735.cdx
  Mrv1902 05222410192D          

101111  0  0  0  0            999 V2000
   12.9783  -10.7525    0.0000 C   0  0  1  0  0  0  0  0  0  0  0  0
   12.9783   -9.9275    0.0000 C   0  0  0  0  0  0  0  0  0  0  0  0
   13.6928   -9.5150    0.0000 C   0  0  0  0  0  0  0  0  0  0  0  0
   13.6928  -11.1650    0.0000 C   0  0  0  0  0  0  0  0  0  0  0  0
   14.4072  -10.7525    0.0000 C   0  0  0  0  0  0  0  0  0  0  0  0
   15.1217  -11.1650    0.0000 C   0  0  0  0  0  0  0  0  0  0  0  0
   15.8362  -10.7525    0.0000 C   0  0  0  0  0  0  0  0  0  0  0  0
   15.8362   -9.9275    0.0000 C   0  0  1  0  0  0  0  0  0  0  0  0
   16.5507   -9.5150    0.0000 C   0  0  2  0  0  0  0  0  0  0  0  0
   17.3353   -9.7699    0.0000 C   0  0  0  0  0  0  0  0  0  0  0  0
   17.8202   -9.1025    0.0000 C   0  0  2  0  0  0  0  0  0  0  0  0
   18.3051   -9.7699    0.0000 H   0  0  0  0  0  0  0  0  0  0  0  0
   18.6048   -8.8476    0.0000 O   0  0  0  0  0  0  0  0  0  0  0  0
   17.3353   -8.4351    0.0000 C   0  0  2  0  0  0  0  0  0  0  0  0
   16.9736   -7.6936    0.0000 H   0  0  0  0  0  0  0  0  0  0  0  0
   17.8202   -7.7676    0.0000 C   0  0  1  0  0  0  0  0  0  0  0  0
   18.6048   -8.0226    0.0000 C   0  0  1  0  0  0  0  0  0  0  0  0
   19.4253   -7.9363    0.0000 C   0  0  0  0  0  0  0  0  0  0  0  0
   19.9102   -8.6038    0.0000 C   0  0  0  0  0  0  0  0  0  0  0  0
   20.7307   -8.5175    0.0000 C   0  0  2  0  0  0  0  0  0  0  0  0
   21.2156   -9.1850    0.0000 C   0  0  0  0  0  0  0  0  0  0  0  0
   16.5507   -8.6900    0.0000 C   0  0  2  0  0  0  0  0  0  0  0  0
   16.5507   -7.8650    0.0000 C   0  0  0  0  0  0  0  0  0  0  0  0
   15.8362   -8.2775    0.0000 C   0  0  0  0  0  0  0  0  0  0  0  0
   15.1217   -8.6900    0.0000 C   0  0  0  0  0  0  0  0  0  0  0  0
   15.1217   -9.5150    0.0000 C   0  0  2  0  0  0  0  0  0  0  0  0
   14.4072   -9.9275    0.0000 C   0  0  1  0  0  0  0  0  0  0  0  0
   14.4072   -9.1025    0.0000 C   0  0  0  0  0  0  0  0  0  0  0  0
   15.1217  -10.3400    0.0000 H   0  0  0  0  0  0  0  0  0  0  0  0
   15.8362   -9.1025    0.0000 H   0  0  0  0  0  0  0  0  0  0  0  0
   16.5507  -10.3400    0.0000 H   0  0  0  0  0  0  0  0  0  0  0  0
   12.2638  -11.1650    0.0000 O   0  0  0  0  0  0  0  0  0  0  0  0
   10.8346   -9.5008    0.0000 C   0  0  2  0  0  0  0  0  0  0  0  0
   10.1184   -9.9104    0.0000 C   0  0  2  0  0  0  0  0  0  0  0  0
   10.1151  -10.7353    0.0000 C   0  0  1  0  0  0  0  0  0  0  0  0
   10.8278  -11.1508    0.0000 C   0  0  2  0  0  0  0  0  0  0  0  0
   11.5440  -10.7412    0.0000 C   0  0  1  0  0  0  0  0  0  0  0  0
   11.5474   -9.9162    0.0000 O   0  0  0  0  0  0  0  0  0  0  0  0
   10.8380   -8.6758    0.0000 C   0  0  0  0  0  0  0  0  0  0  0  0
    9.3989  -11.1449    0.0000 O   0  0  0  0  0  0  0  0  0  0  0  0
    9.4057   -9.4949    0.0000 O   0  0  0  0  0  0  0  0  0  0  0  0
   10.8245  -11.9758    0.0000 O   0  0  0  0  0  0  0  0  0  0  0  0
   10.1235   -8.2633    0.0000 O   0  0  0  0  0  0  0  0  0  0  0  0
   22.0361   -9.0987    0.0000 O   0  0  0  0  0  0  0  0  0  0  0  0
   22.5210   -9.7662    0.0000 C   0  0  2  0  0  0  0  0  0  0  0  0
   22.1855  -10.5198    0.0000 O   0  0  0  0  0  0  0  0  0  0  0  0
   22.6704  -11.1873    0.0000 C   0  0  1  0  0  0  0  0  0  0  0  0
   23.4909  -11.1010    0.0000 C   0  0  2  0  0  0  0  0  0  0  0  0
   23.8264  -10.3474    0.0000 C   0  0  1  0  0  0  0  0  0  0  0  0
   23.3415   -9.6799    0.0000 C   0  0  1  0  0  0  0  0  0  0  0  0
   22.3348  -11.9410    0.0000 C   0  0  0  0  0  0  0  0  0  0  0  0
   24.6469  -10.2611    0.0000 O   0  0  0  0  0  0  0  0  0  0  0  0
   23.6771   -8.9263    0.0000 O   0  0  0  0  0  0  0  0  0  0  0  0
   23.9758  -11.7685    0.0000 O   0  0  0  0  0  0  0  0  0  0  0  0
   22.8198  -12.6084    0.0000 O   0  0  0  0  0  0  0  0  0  0  0  0
   21.0663   -7.7638    0.0000 C   0  0  0  0  0  0  0  0  0  0  0  0
   10.4165  -12.6928    0.0000 C   0  0  2  0  0  0  0  0  0  0  0  0
    9.5915  -12.6947    0.0000 O   0  0  0  0  0  0  0  0  0  0  0  0
    9.1866  -13.4201    0.0000 C   0  0  2  0  0  0  0  0  0  0  0  0
    9.6065  -14.1302    0.0000 C   0  0  1  0  0  0  0  0  0  0  0  0
   10.4373  -14.1250    0.0000 C   0  0  2  0  0  0  0  0  0  0  0  0
   10.8364  -13.4029    0.0000 C   0  0  1  0  0  0  0  0  0  0  0  0
    9.2000  -14.8482    0.0000 O   0  0  0  0  0  0  0  0  0  0  0  0
    8.3616  -13.4304    0.0000 C   0  0  0  0  0  0  0  0  0  0  0  0
   10.8587  -14.8342    0.0000 O   0  0  0  0  0  0  0  0  0  0  0  0
   11.6613  -13.3910    0.0000 O   0  0  0  0  0  0  0  0  0  0  0  0
   17.5653   -6.9830    0.0000 C   0  0  0  0  0  0  0  0  0  0  0  0
    8.5809   -9.4756    0.0000 C   0  0  2  0  0  0  0  0  0  0  0  0
    8.1882   -8.7501    0.0000 O   0  0  0  0  0  0  0  0  0  0  0  0
    7.3575   -8.7374    0.0000 C   0  0  1  0  0  0  0  0  0  0  0  0
    6.9312   -9.4437    0.0000 C   0  0  2  0  0  0  0  0  0  0  0  0
    7.3297  -10.1728    0.0000 C   0  0  1  0  0  0  0  0  0  0  0  0
    8.1547  -10.1820    0.0000 C   0  0  1  0  0  0  0  0  0  0  0  0
    6.1064   -9.4261    0.0000 O   0  0  0  0  0  0  0  0  0  0  0  0
    6.9049  -10.8800    0.0000 O   0  0  0  0  0  0  0  0  0  0  0  0
    6.9574   -8.0159    0.0000 C   0  0  0  0  0  0  0  0  0  0  0  0
    8.5562  -10.9026    0.0000 O   0  0  0  0  0  0  0  0  0  0  0  0
   18.8183   -7.2257    0.0000 O   0  0  0  0  0  0  0  0  0  0  0  0
    6.1325   -8.0016    0.0000 O   0  0  0  0  0  0  0  0  0  0  0  0
    6.1890  -11.2900    0.0000 C   0  0  2  0  0  0  0  0  0  0  0  0
    5.4833  -10.8628    0.0000 O   0  0  0  0  0  0  0  0  0  0  0  0
    4.7604  -11.2604    0.0000 C   0  0  1  0  0  0  0  0  0  0  0  0
    4.7433  -12.0853    0.0000 C   0  0  2  0  0  0  0  0  0  0  0  0
    5.4491  -12.5125    0.0000 C   0  0  1  0  0  0  0  0  0  0  0  0
    6.1720  -12.1149    0.0000 C   0  0  1  0  0  0  0  0  0  0  0  0
    4.0546  -10.8332    0.0000 C   0  0  0  0  0  0  0  0  0  0  0  0
    5.4320  -13.3373    0.0000 O   0  0  0  0  0  0  0  0  0  0  0  0
    4.0205  -12.4829    0.0000 O   0  0  0  0  0  0  0  0  0  0  0  0
    6.8777  -12.5421    0.0000 O   0  0  0  0  0  0  0  0  0  0  0  0
    4.0717  -10.0084    0.0000 O   0  0  0  0  0  0  0  0  0  0  0  0
    3.6596   -9.2937    0.0000 C   0  0  2  0  0  0  0  0  0  0  0  0
    4.0797   -8.5837    0.0000 O   0  0  0  0  0  0  0  0  0  0  0  0
    3.6748   -7.8649    0.0000 C   0  0  1  0  0  0  0  0  0  0  0  0
    2.8498   -7.8561    0.0000 C   0  0  2  0  0  0  0  0  0  0  0  0
    2.4521   -8.5784    0.0000 C   0  0  1  0  0  0  0  0  0  0  0  0
    2.8792   -9.3095    0.0000 C   0  0  1  0  0  0  0  0  0  0  0  0
    4.0949   -7.1548    0.0000 C   0  0  0  0  0  0  0  0  0  0  0  0
    1.6271   -8.5889    0.0000 O   0  0  0  0  0  0  0  0  0  0  0  0
    2.4759  -10.0292    0.0000 O   0  0  0  0  0  0  0  0  0  0  0  0
    2.4339   -7.1436    0.0000 O   0  0  0  0  0  0  0  0  0  0  0  0
    3.6900   -6.4360    0.0000 O   0  0  0  0  0  0  0  0  0  0  0  0
  1  2  1  0  0  0  0
  2  3  1  0  0  0  0
  1  4  1  0  0  0  0
  4  5  1  0  0  0  0
  5  6  2  0  0  0  0
  6  7  1  0  0  0  0
  7  8  1  0  0  0  0
  8  9  1  0  0  0  0
  9 10  1  0  0  0  0
 10 11  1  0  0  0  0
 11 12  1  6  0  0  0
 11 13  1  0  0  0  0
 11 14  1  0  0  0  0
 14 15  1  6  0  0  0
 14 16  1  0  0  0  0
 16 17  1  0  0  0  0
 13 17  1  0  0  0  0
 17 18  1  0  0  0  0
 18 19  1  0  0  0  0
 19 20  1  0  0  0  0
 20 21  1  0  0  0  0
 14 22  1  0  0  0  0
  9 22  1  0  0  0  0
 22 23  1  1  0  0  0
 22 24  1  0  0  0  0
 24 25  1  0  0  0  0
 25 26  1  0  0  0  0
  8 26  1  0  0  0  0
 26 27  1  0  0  0  0
  3 27  1  0  0  0  0
  5 27  1  0  0  0  0
 27 28  1  1  0  0  0
 26 29  1  6  0  0  0
  8 30  1  1  0  0  0
  9 31  1  6  0  0  0
  1 32  1  1  0  0  0
 33 34  1  0  0  0  0
 34 35  1  0  0  0  0
 35 36  1  0  0  0  0
 36 37  1  0  0  0  0
 37 38  1  0  0  0  0
 38 33  1  0  0  0  0
 33 39  1  1  0  0  0
 35 40  1  1  0  0  0
 34 41  1  6  0  0  0
 36 42  1  6  0  0  0
 39 43  1  0  0  0  0
 37 32  1  1  0  0  0
 21 44  1  0  0  0  0
 45 44  1  1  0  0  0
 45 46  1  0  0  0  0
 46 47  1  0  0  0  0
 47 48  1  0  0  0  0
 48 49  1  0  0  0  0
 49 50  1  0  0  0  0
 50 45  1  0  0  0  0
 47 51  1  1  0  0  0
 49 52  1  1  0  0  0
 50 53  1  6  0  0  0
 48 54  1  6  0  0  0
 51 55  1  0  0  0  0
 20 56  1  1  0  0  0
 57 42  1  1  0  0  0
 57 58  1  0  0  0  0
 58 59  1  0  0  0  0
 59 60  1  0  0  0  0
 60 61  1  0  0  0  0
 61 62  1  0  0  0  0
 62 57  1  0  0  0  0
 60 63  1  1  0  0  0
 59 64  1  6  0  0  0
 61 65  1  6  0  0  0
 62 66  1  6  0  0  0
 16 67  1  6  0  0  0
 68 41  1  1  0  0  0
 68 69  1  0  0  0  0
 69 70  1  0  0  0  0
 70 71  1  0  0  0  0
 71 72  1  0  0  0  0
 72 73  1  0  0  0  0
 73 68  1  0  0  0  0
 71 74  1  6  0  0  0
 72 75  1  1  0  0  0
 70 76  1  1  0  0  0
 73 77  1  6  0  0  0
 17 78  1  6  0  0  0
 76 79  1  0  0  0  0
 80 75  1  1  0  0  0
 80 81  1  0  0  0  0
 81 82  1  0  0  0  0
 82 83  1  0  0  0  0
 83 84  1  0  0  0  0
 84 85  1  0  0  0  0
 85 80  1  0  0  0  0
 82 86  1  1  0  0  0
 84 87  1  1  0  0  0
 83 88  1  6  0  0  0
 85 89  1  6  0  0  0
 86 90  1  0  0  0  0
 91 90  1  1  0  0  0
 91 92  1  0  0  0  0
 92 93  1  0  0  0  0
 93 94  1  0  0  0  0
 94 95  1  0  0  0  0
 95 96  1  0  0  0  0
 96 91  1  0  0  0  0
 93 97  1  1  0  0  0
 95 98  1  1  0  0  0
 96 99  1  6  0  0  0
 94100  1  6  0  0  0
 97101  1  0  0  0  0
M  END
>  <cdx:fragmentId>
5

$$$$
