98732.cdx
  Mrv1902 05222410202D          

108119  0  0  0  0            999 V2000
   14.3808  -10.5325    0.0000 C   0  0  1  0  0  0  0  0  0  0  0  0
   14.3808   -9.7075    0.0000 C   0  0  0  0  0  0  0  0  0  0  0  0
   15.0953   -9.2950    0.0000 C   0  0  0  0  0  0  0  0  0  0  0  0
   15.0953  -10.9450    0.0000 C   0  0  0  0  0  0  0  0  0  0  0  0
   15.8097  -10.5325    0.0000 C   0  0  0  0  0  0  0  0  0  0  0  0
   16.5242  -10.9450    0.0000 C   0  0  0  0  0  0  0  0  0  0  0  0
   17.2387  -10.5325    0.0000 C   0  0  0  0  0  0  0  0  0  0  0  0
   17.2387   -9.7075    0.0000 C   0  0  1  0  0  0  0  0  0  0  0  0
   17.9532   -9.2950    0.0000 C   0  0  2  0  0  0  0  0  0  0  0  0
   18.7378   -9.5499    0.0000 C   0  0  0  0  0  0  0  0  0  0  0  0
   19.2227   -8.8825    0.0000 C   0  0  2  0  0  0  0  0  0  0  0  0
   19.7076   -9.5499    0.0000 H   0  0  0  0  0  0  0  0  0  0  0  0
   20.0073   -8.6276    0.0000 O   0  0  0  0  0  0  0  0  0  0  0  0
   18.7378   -8.2151    0.0000 C   0  0  2  0  0  0  0  0  0  0  0  0
   18.3761   -7.4736    0.0000 H   0  0  0  0  0  0  0  0  0  0  0  0
   19.2227   -7.5476    0.0000 C   0  0  1  0  0  0  0  0  0  0  0  0
   20.0073   -7.8026    0.0000 C   0  0  1  0  0  0  0  0  0  0  0  0
   20.8278   -7.7163    0.0000 C   0  0  0  0  0  0  0  0  0  0  0  0
   21.3127   -8.3838    0.0000 C   0  0  0  0  0  0  0  0  0  0  0  0
   22.1332   -8.2975    0.0000 C   0  0  0  0  0  0  0  0  0  0  0  0
   22.6181   -8.9650    0.0000 C   0  0  0  0  0  0  0  0  0  0  0  0
   17.9532   -8.4700    0.0000 C   0  0  2  0  0  0  0  0  0  0  0  0
   17.9532   -7.6450    0.0000 C   0  0  0  0  0  0  0  0  0  0  0  0
   17.2387   -8.0575    0.0000 C   0  0  0  0  0  0  0  0  0  0  0  0
   16.5242   -8.4700    0.0000 C   0  0  0  0  0  0  0  0  0  0  0  0
   16.5242   -9.2950    0.0000 C   0  0  2  0  0  0  0  0  0  0  0  0
   15.8097   -9.7075    0.0000 C   0  0  1  0  0  0  0  0  0  0  0  0
   15.8097   -8.8825    0.0000 C   0  0  0  0  0  0  0  0  0  0  0  0
   16.5242  -10.1200    0.0000 H   0  0  0  0  0  0  0  0  0  0  0  0
   17.2387   -8.8825    0.0000 H   0  0  0  0  0  0  0  0  0  0  0  0
   17.9532  -10.1200    0.0000 H   0  0  0  0  0  0  0  0  0  0  0  0
   13.6663  -10.9450    0.0000 O   0  0  0  0  0  0  0  0  0  0  0  0
   12.2371   -9.2808    0.0000 C   0  0  2  0  0  0  0  0  0  0  0  0
   11.5209   -9.6904    0.0000 C   0  0  2  0  0  0  0  0  0  0  0  0
   11.5176  -10.5153    0.0000 C   0  0  1  0  0  0  0  0  0  0  0  0
   12.2303  -10.9308    0.0000 C   0  0  2  0  0  0  0  0  0  0  0  0
   12.9465  -10.5212    0.0000 C   0  0  1  0  0  0  0  0  0  0  0  0
   12.9499   -9.6962    0.0000 O   0  0  0  0  0  0  0  0  0  0  0  0
   12.2405   -8.4558    0.0000 C   0  0  0  0  0  0  0  0  0  0  0  0
   10.8014  -10.9249    0.0000 O   0  0  0  0  0  0  0  0  0  0  0  0
   10.8082   -9.2749    0.0000 O   0  0  0  0  0  0  0  0  0  0  0  0
   12.2270  -11.7558    0.0000 O   0  0  0  0  0  0  0  0  0  0  0  0
   11.5260   -8.0433    0.0000 O   0  0  0  0  0  0  0  0  0  0  0  0
   23.4386   -8.8787    0.0000 O   0  0  0  0  0  0  0  0  0  0  0  0
   23.9235   -9.5462    0.0000 C   0  0  2  0  0  0  0  0  0  0  0  0
   23.5880  -10.2998    0.0000 O   0  0  0  0  0  0  0  0  0  0  0  0
   24.0729  -10.9673    0.0000 C   0  0  1  0  0  0  0  0  0  0  0  0
   24.8934  -10.8810    0.0000 C   0  0  2  0  0  0  0  0  0  0  0  0
   25.2289  -10.1274    0.0000 C   0  0  1  0  0  0  0  0  0  0  0  0
   24.7440   -9.4599    0.0000 C   0  0  1  0  0  0  0  0  0  0  0  0
   23.7373  -11.7210    0.0000 C   0  0  0  0  0  0  0  0  0  0  0  0
   26.0494  -10.0411    0.0000 O   0  0  0  0  0  0  0  0  0  0  0  0
   25.0796   -8.7063    0.0000 O   0  0  0  0  0  0  0  0  0  0  0  0
   25.3783  -11.5485    0.0000 O   0  0  0  0  0  0  0  0  0  0  0  0
   24.2223  -12.3884    0.0000 O   0  0  0  0  0  0  0  0  0  0  0  0
   22.4688   -7.5438    0.0000 C   0  0  0  0  0  0  0  0  0  0  0  0
   11.8190  -12.4728    0.0000 C   0  0  2  0  0  0  0  0  0  0  0  0
   10.9940  -12.4747    0.0000 O   0  0  0  0  0  0  0  0  0  0  0  0
   10.5891  -13.2001    0.0000 C   0  0  2  0  0  0  0  0  0  0  0  0
   11.0090  -13.9102    0.0000 C   0  0  1  0  0  0  0  0  0  0  0  0
   11.8398  -13.9050    0.0000 C   0  0  2  0  0  0  0  0  0  0  0  0
   12.2389  -13.1829    0.0000 C   0  0  1  0  0  0  0  0  0  0  0  0
   10.6025  -14.6282    0.0000 O   0  0  0  0  0  0  0  0  0  0  0  0
    9.7641  -13.2104    0.0000 C   0  0  0  0  0  0  0  0  0  0  0  0
   12.2612  -14.6142    0.0000 O   0  0  0  0  0  0  0  0  0  0  0  0
   13.0638  -13.1710    0.0000 O   0  0  0  0  0  0  0  0  0  0  0  0
   18.9678   -6.7630    0.0000 C   0  0  0  0  0  0  0  0  0  0  0  0
    9.9834   -9.2556    0.0000 C   0  0  2  0  0  0  0  0  0  0  0  0
    9.5907   -8.5301    0.0000 O   0  0  0  0  0  0  0  0  0  0  0  0
    8.7600   -8.5174    0.0000 C   0  0  1  0  0  0  0  0  0  0  0  0
    8.3337   -9.2237    0.0000 C   0  0  2  0  0  0  0  0  0  0  0  0
    8.7322   -9.9528    0.0000 C   0  0  1  0  0  0  0  0  0  0  0  0
    9.5572   -9.9620    0.0000 C   0  0  1  0  0  0  0  0  0  0  0  0
    7.5089   -9.2061    0.0000 O   0  0  0  0  0  0  0  0  0  0  0  0
    8.3074  -10.6600    0.0000 O   0  0  0  0  0  0  0  0  0  0  0  0
    8.3599   -7.7959    0.0000 C   0  0  0  0  0  0  0  0  0  0  0  0
    9.9587  -10.6826    0.0000 O   0  0  0  0  0  0  0  0  0  0  0  0
   20.2208   -7.0057    0.0000 O   0  0  0  0  0  0  0  0  0  0  0  0
    7.5350   -7.7816    0.0000 O   0  0  0  0  0  0  0  0  0  0  0  0
    7.4826  -10.6457    0.0000 C   0  0  2  0  0  0  0  0  0  0  0  0
    7.0884   -9.9210    0.0000 O   0  0  0  0  0  0  0  0  0  0  0  0
    6.2637   -9.9210    0.0000 C   0  0  1  0  0  0  0  0  0  0  0  0
    5.8331  -10.6457    0.0000 C   0  0  2  0  0  0  0  0  0  0  0  0
    6.2272  -11.3705    0.0000 C   0  0  1  0  0  0  0  0  0  0  0  0
    7.0520  -11.3705    0.0000 C   0  0  1  0  0  0  0  0  0  0  0  0
    5.8556   -9.2040    0.0000 C   0  0  0  0  0  0  0  0  0  0  0  0
    5.8057  -12.0797    0.0000 O   0  0  0  0  0  0  0  0  0  0  0  0
    7.4600  -12.0875    0.0000 O   0  0  0  0  0  0  0  0  0  0  0  0
    5.0082  -10.6301    0.0000 O   0  0  0  0  0  0  0  0  0  0  0  0
    5.0307   -9.1988    0.0000 O   0  0  0  0  0  0  0  0  0  0  0  0
    4.6226   -8.4818    0.0000 C   0  0  2  0  0  0  0  0  0  0  0  0
    5.0440   -7.7725    0.0000 O   0  0  0  0  0  0  0  0  0  0  0  0
    4.6226   -7.0529    0.0000 C   0  0  0  0  0  0  0  0  0  0  0  0
    3.7977   -7.0529    0.0000 C   0  0  2  0  0  0  0  0  0  0  0  0
    3.3763   -7.7725    0.0000 C   0  0  1  0  0  0  0  0  0  0  0  0
    3.7977   -8.4818    0.0000 C   0  0  1  0  0  0  0  0  0  0  0  0
    2.5513   -7.7751    0.0000 O   0  0  0  0  0  0  0  0  0  0  0  0
    3.3874   -6.3372    0.0000 O   0  0  0  0  0  0  0  0  0  0  0  0
    3.3897   -9.1988    0.0000 O   0  0  0  0  0  0  0  0  0  0  0  0
    4.2846  -11.0262    0.0000 C   0  0  2  0  0  0  0  0  0  0  0  0
    3.5837  -10.5909    0.0000 O   0  0  0  0  0  0  0  0  0  0  0  0
    2.8563  -10.9803    0.0000 C   0  0  0  0  0  0  0  0  0  0  0  0
    2.8298  -11.8048    0.0000 C   0  0  2  0  0  0  0  0  0  0  0  0
    3.5425  -12.2199    0.0000 C   0  0  1  0  0  0  0  0  0  0  0  0
    4.2816  -11.8104    0.0000 C   0  0  1  0  0  0  0  0  0  0  0  0
    4.9916  -12.2305    0.0000 O   0  0  0  0  0  0  0  0  0  0  0  0
    3.5336  -13.0448    0.0000 O   0  0  0  0  0  0  0  0  0  0  0  0
    2.1081  -12.2044    0.0000 O   0  0  0  0  0  0  0  0  0  0  0  0
  1  2  1  0  0  0  0
  2  3  1  0  0  0  0
  1  4  1  0  0  0  0
  4  5  1  0  0  0  0
  5  6  2  0  0  0  0
  6  7  1  0  0  0  0
  7  8  1  0  0  0  0
  8  9  1  0  0  0  0
  9 10  1  0  0  0  0
 10 11  1  0  0  0  0
 11 12  1  6  0  0  0
 11 13  1  0  0  0  0
 11 14  1  0  0  0  0
 14 15  1  6  0  0  0
 14 16  1  0  0  0  0
 16 17  1  0  0  0  0
 13 17  1  0  0  0  0
 17 18  1  0  0  0  0
 18 19  1  0  0  0  0
 19 20  1  0  0  0  0
 20 21  1  0  0  0  0
 14 22  1  0  0  0  0
  9 22  1  0  0  0  0
 22 23  1  1  0  0  0
 22 24  1  0  0  0  0
 24 25  1  0  0  0  0
 25 26  1  0  0  0  0
  8 26  1  0  0  0  0
 26 27  1  0  0  0  0
  3 27  1  0  0  0  0
  5 27  1  0  0  0  0
 27 28  1  1  0  0  0
 26 29  1  6  0  0  0
  8 30  1  1  0  0  0
  9 31  1  6  0  0  0
  1 32  1  1  0  0  0
 33 34  1  0  0  0  0
 34 35  1  0  0  0  0
 35 36  1  0  0  0  0
 36 37  1  0  0  0  0
 37 38  1  0  0  0  0
 38 33  1  0  0  0  0
 33 39  1  1  0  0  0
 35 40  1  1  0  0  0
 34 41  1  6  0  0  0
 36 42  1  6  0  0  0
 39 43  1  0  0  0  0
 37 32  1  1  0  0  0
 21 44  1  0  0  0  0
 45 44  1  1  0  0  0
 45 46  1  0  0  0  0
 46 47  1  0  0  0  0
 47 48  1  0  0  0  0
 48 49  1  0  0  0  0
 49 50  1  0  0  0  0
 50 45  1  0  0  0  0
 47 51  1  1  0  0  0
 49 52  1  1  0  0  0
 50 53  1  6  0  0  0
 48 54  1  6  0  0  0
 51 55  1  0  0  0  0
 20 56  2  0  0  0  0
 57 42  1  1  0  0  0
 57 58  1  0  0  0  0
 58 59  1  0  0  0  0
 59 60  1  0  0  0  0
 60 61  1  0  0  0  0
 61 62  1  0  0  0  0
 62 57  1  0  0  0  0
 60 63  1  1  0  0  0
 59 64  1  6  0  0  0
 61 65  1  6  0  0  0
 62 66  1  6  0  0  0
 16 67  1  6  0  0  0
 68 41  1  1  0  0  0
 68 69  1  0  0  0  0
 69 70  1  0  0  0  0
 70 71  1  0  0  0  0
 71 72  1  0  0  0  0
 72 73  1  0  0  0  0
 73 68  1  0  0  0  0
 71 74  1  6  0  0  0
 72 75  1  1  0  0  0
 70 76  1  1  0  0  0
 73 77  1  6  0  0  0
 17 78  1  6  0  0  0
 76 79  1  0  0  0  0
 80 75  1  1  0  0  0
 80 81  1  0  0  0  0
 81 82  1  0  0  0  0
 82 83  1  0  0  0  0
 83 84  1  0  0  0  0
 84 85  1  0  0  0  0
 85 80  1  0  0  0  0
 82 86  1  1  0  0  0
 84 87  1  1  0  0  0
 85 88  1  6  0  0  0
 83 89  1  6  0  0  0
 86 90  1  0  0  0  0
 91 90  1  1  0  0  0
 91 92  1  0  0  0  0
 92 93  1  0  0  0  0
 93 94  1  0  0  0  0
 94 95  1  0  0  0  0
 95 96  1  0  0  0  0
 96 91  1  0  0  0  0
 95 97  1  1  0  0  0
 94 98  1  6  0  0  0
 96 99  1  6  0  0  0
100 89  1  1  0  0  0
100101  1  0  0  0  0
101102  1  0  0  0  0
102103  1  0  0  0  0
103104  1  0  0  0  0
104105  1  0  0  0  0
105100  1  0  0  0  0
105106  1  6  0  0  0
104107  1  1  0  0  0
103108  1  6  0  0  0
M  END
>  <cdx:fragmentId>
5

$$$$
