98739.cdx
  Mrv1902 05222410272D          

 39 43  0  0  0  0            999 V2000
    4.6473   -9.3633    0.0000 C   0  0  0  0  0  0  0  0  0  0  0  0
    3.9329   -9.7758    0.0000 C   0  0  1  0  0  0  0  0  0  0  0  0
    3.9329  -10.6008    0.0000 C   0  0  1  0  0  0  0  0  0  0  0  0
    4.6473  -11.0133    0.0000 C   0  0  0  0  0  0  0  0  0  0  0  0
    5.3618  -10.6008    0.0000 C   0  0  1  0  0  0  0  0  0  0  0  0
    6.0763  -11.0133    0.0000 C   0  0  0  0  0  0  0  0  0  0  0  0
    6.7908  -10.6008    0.0000 C   0  0  0  0  0  0  0  0  0  0  0  0
    6.7908   -9.7758    0.0000 C   0  0  0  0  0  0  0  0  0  0  0  0
    7.5052   -9.3633    0.0000 C   0  0  2  0  0  0  0  0  0  0  0  0
    8.2899   -9.6183    0.0000 C   0  0  0  0  0  0  0  0  0  0  0  0
    8.7748   -8.9508    0.0000 C   0  0  0  0  0  0  0  0  0  0  0  0
    8.2899   -8.2834    0.0000 C   0  0  0  0  0  0  0  0  0  0  0  0
    7.5052   -8.5383    0.0000 C   0  0  1  0  0  0  0  0  0  0  0  0
    6.7908   -8.1258    0.0000 C   0  0  0  0  0  0  0  0  0  0  0  0
    6.0763   -8.5383    0.0000 C   0  0  2  0  0  0  0  0  0  0  0  0
    6.0763   -9.3633    0.0000 C   0  0  2  0  0  0  0  0  0  0  0  0
    5.3618   -9.7758    0.0000 C   0  0  1  0  0  0  0  0  0  0  0  0
    6.0763  -11.8383    0.0000 O   0  0  0  0  0  0  0  0  0  0  0  0
    7.5915   -7.7178    0.0000 C   0  0  0  0  0  0  0  0  0  0  0  0
    5.3618   -8.9508    0.0000 C   0  0  0  0  0  0  0  0  0  0  0  0
    7.5052  -10.1883    0.0000 O   0  0  0  0  0  0  0  0  0  0  0  0
    5.3618   -8.1258    0.0000 O   0  0  0  0  0  0  0  0  0  0  0  0
    3.2184  -11.0133    0.0000 O   0  0  0  0  0  0  0  0  0  0  0  0
    3.2184   -9.3633    0.0000 O   0  0  0  0  0  0  0  0  0  0  0  0
    8.5448   -7.4988    0.0000 C   0  0  1  0  0  0  0  0  0  0  0  0
    9.3518   -7.3272    0.0000 C   0  0  2  0  0  0  0  0  0  0  0  0
    9.6067   -6.5426    0.0000 C   0  0  0  0  0  0  0  0  0  0  0  0
   10.4137   -6.3711    0.0000 C   0  0  0  0  0  0  0  0  0  0  0  0
   10.6686   -5.5865    0.0000 C   0  0  0  0  0  0  0  0  0  0  0  0
   10.1166   -4.9734    0.0000 C   0  0  0  0  0  0  0  0  0  0  0  0
   11.4756   -5.4149    0.0000 C   0  0  0  0  0  0  0  0  0  0  0  0
    7.7602   -7.2438    0.0000 C   0  0  0  0  0  0  0  0  0  0  0  0
    5.3618  -11.4258    0.0000 H   0  0  0  0  0  0  0  0  0  0  0  0
    6.0763  -10.1883    0.0000 H   0  0  0  0  0  0  0  0  0  0  0  0
    9.4380   -6.5068    0.0000 O   0  0  0  0  0  0  0  0  0  0  0  0
    8.6843   -6.1712    0.0000 C   0  0  0  0  0  0  0  0  0  0  0  0
    8.1323   -6.7843    0.0000 O   0  0  0  0  0  0  0  0  0  0  0  0
    8.1010   -5.5878    0.0000 C   0  0  0  0  0  0  0  0  0  0  0  0
    8.8978   -5.3743    0.0000 C   0  0  0  0  0  0  0  0  0  0  0  0
  1  2  1  0  0  0  0
  2  3  1  0  0  0  0
  3  4  1  0  0  0  0
  4  5  1  0  0  0  0
  5  6  1  0  0  0  0
  6  7  1  0  0  0  0
  7  8  2  0  0  0  0
  8  9  1  0  0  0  0
  9 10  1  0  0  0  0
 10 11  1  0  0  0  0
 12 11  1  0  0  0  0
 12 13  1  0  0  0  0
  9 13  1  0  0  0  0
 13 14  1  0  0  0  0
 14 15  1  0  0  0  0
 15 16  1  0  0  0  0
  8 16  1  0  0  0  0
 16 17  1  0  0  0  0
  5 17  1  0  0  0  0
  1 17  1  0  0  0  0
  6 18  2  0  0  0  0
 13 19  1  1  0  0  0
 17 20  1  1  0  0  0
  9 21  1  6  0  0  0
 15 22  1  6  0  0  0
  3 23  1  1  0  0  0
  2 24  1  1  0  0  0
 25 26  1  0  0  0  0
 26 27  1  0  0  0  0
 27 28  1  0  0  0  0
 28 29  1  0  0  0  0
 29 30  1  0  0  0  0
 29 31  1  0  0  0  0
 25 32  1  6  0  0  0
 12 25  1  0  0  0  0
  5 33  1  1  0  0  0
 16 34  1  6  0  0  0
 26 35  1  6  0  0  0
 35 36  1  0  0  0  0
 36 37  1  0  0  0  0
 25 37  1  1  0  0  0
 36 38  1  0  0  0  0
 36 39  1  0  0  0  0
M  END
>  <cdx:fragmentId>
5

$$$$
