10987385.cdx
  Mrv1902 05222410202D          

 17 19  0  0  0  0            999 V2000
    7.4489  -11.7330    0.0000 C   0  0  2  0  0  0  0  0  0  0  0  0
    7.1940  -10.9483    0.0000 C   0  0  1  0  0  0  0  0  0  0  0  0
    7.8614  -10.4634    0.0000 C   0  0  0  0  0  0  0  0  0  0  0  0
    8.5289  -10.9483    0.0000 C   0  0  0  0  0  0  0  0  0  0  0  0
    8.2739  -11.7330    0.0000 C   0  0  2  0  0  0  0  0  0  0  0  0
    8.2739  -12.5580    0.0000 C   0  0  0  0  0  0  0  0  0  0  0  0
    7.4489  -12.5580    0.0000 C   0  0  1  0  0  0  0  0  0  0  0  0
    6.7345  -12.9705    0.0000 C   0  0  0  0  0  0  0  0  0  0  0  0
    6.0200  -12.5580    0.0000 C   0  0  0  0  0  0  0  0  0  0  0  0
    6.0200  -11.7330    0.0000 C   0  0  0  0  0  0  0  0  0  0  0  0
    6.7345  -11.3205    0.0000 C   0  0  0  0  0  0  0  0  0  0  0  0
    5.3055  -12.9705    0.0000 C   0  0  0  0  0  0  0  0  0  0  0  0
    9.0708  -12.7715    0.0000 C   0  0  0  0  0  0  0  0  0  0  0  0
    8.4874  -13.3548    0.0000 C   0  0  0  0  0  0  0  0  0  0  0  0
    6.4094  -10.6934    0.0000 C   0  0  0  0  0  0  0  0  0  0  0  0
    9.0888  -11.8620    0.0000 H   0  0  0  0  0  0  0  0  0  0  0  0
    7.6624  -13.3548    0.0000 H   0  0  0  0  0  0  0  0  0  0  0  0
  1  2  1  0  0  0  0
  2  3  1  0  0  0  0
  3  4  1  0  0  0  0
  4  5  1  0  0  0  0
  5  6  1  0  0  0  0
  6  7  1  0  0  0  0
  7  8  1  0  0  0  0
  8  9  2  0  0  0  0
  9 10  1  0  0  0  0
 10 11  1  0  0  0  0
  1 11  1  1  0  0  0
  1  7  1  0  0  0  0
  1  5  1  0  0  0  0
  9 12  1  0  0  0  0
  6 13  1  0  0  0  0
  6 14  1  0  0  0  0
  2 15  1  6  0  0  0
  5 16  1  1  0  0  0
  7 17  1  6  0  0  0
M  END
>  <cdx:groupId>
64327

>  <cdx:fragmentId>
64277

$$$$
