98743.cdx
  Mrv1902 05222410212D          

 68 76  0  0  0  0            999 V2000
    7.5825   -8.4359    0.0000 C   0  0  1  0  0  0  0  0  0  0  0  0
    7.5825   -7.6109    0.0000 C   0  0  0  0  0  0  0  0  0  0  0  0
    8.2970   -7.1984    0.0000 C   0  0  0  0  0  0  0  0  0  0  0  0
    8.2970   -8.8484    0.0000 C   0  0  2  0  0  0  0  0  0  0  0  0
    8.7095   -9.5629    0.0000 C   0  0  0  0  0  0  0  0  0  0  0  0
    7.8845   -9.5629    0.0000 C   0  0  0  0  0  0  0  0  0  0  0  0
    9.0114   -8.4359    0.0000 C   0  0  2  0  0  0  0  0  0  0  0  0
    9.0114   -9.2609    0.0000 H   0  0  0  0  0  0  0  0  0  0  0  0
    9.7259   -8.8484    0.0000 C   0  0  0  0  0  0  0  0  0  0  0  0
   10.4404   -8.4359    0.0000 C   0  0  0  0  0  0  0  0  0  0  0  0
   10.4404   -7.6109    0.0000 C   0  0  1  0  0  0  0  0  0  0  0  0
   10.4404   -6.7859    0.0000 C   0  0  0  0  0  0  0  0  0  0  0  0
   11.1549   -7.1984    0.0000 C   0  0  2  0  0  0  0  0  0  0  0  0
   11.1549   -8.0234    0.0000 C   0  0  0  0  0  0  0  0  0  0  0  0
   11.8693   -7.6109    0.0000 C   0  0  0  0  0  0  0  0  0  0  0  0
   12.5838   -7.1984    0.0000 C   0  0  1  0  0  0  0  0  0  0  0  0
   12.5838   -6.3734    0.0000 C   0  0  1  0  0  0  0  0  0  0  0  0
   13.2983   -6.7859    0.0000 C   0  0  0  0  0  0  0  0  0  0  0  0
   13.2983   -5.9609    0.0000 C   0  0  0  0  0  0  0  0  0  0  0  0
   13.2983   -5.1359    0.0000 C   0  0  0  0  0  0  0  0  0  0  0  0
   12.5838   -4.7234    0.0000 C   0  0  1  0  0  0  0  0  0  0  0  0
   12.1713   -4.0089    0.0000 C   0  0  0  0  0  0  0  0  0  0  0  0
   12.9963   -4.0089    0.0000 C   0  0  0  0  0  0  0  0  0  0  0  0
   11.8693   -5.1359    0.0000 C   0  0  0  0  0  0  0  0  0  0  0  0
   11.8693   -5.9609    0.0000 C   0  0  1  0  0  0  0  0  0  0  0  0
   11.1549   -6.3734    0.0000 C   0  0  2  0  0  0  0  0  0  0  0  0
   11.1549   -5.5484    0.0000 O   0  0  0  0  0  0  0  0  0  0  0  0
   10.4404   -5.9609    0.0000 C   0  0  0  0  0  0  0  0  0  0  0  0
    9.7259   -6.3734    0.0000 C   0  0  0  0  0  0  0  0  0  0  0  0
    9.7259   -7.1984    0.0000 C   0  0  2  0  0  0  0  0  0  0  0  0
    9.0114   -7.6109    0.0000 C   0  0  1  0  0  0  0  0  0  0  0  0
    9.0114   -6.7859    0.0000 C   0  0  0  0  0  0  0  0  0  0  0  0
    8.2970  -10.2773    0.0000 O   0  0  0  0  0  0  0  0  0  0  0  0
   13.2983   -7.6109    0.0000 O   0  0  0  0  0  0  0  0  0  0  0  0
    6.8680   -8.8484    0.0000 O   0  0  0  0  0  0  0  0  0  0  0  0
    9.7259   -8.0234    0.0000 H   0  0  0  0  0  0  0  0  0  0  0  0
    5.4324   -7.2006    0.0000 C   0  0  2  0  0  0  0  0  0  0  0  0
    4.7181   -7.6134    0.0000 C   0  0  1  0  0  0  0  0  0  0  0  0
    4.7184   -8.4384    0.0000 C   0  0  1  0  0  0  0  0  0  0  0  0
    5.4331   -8.8506    0.0000 C   0  0  2  0  0  0  0  0  0  0  0  0
    6.1474   -8.4378    0.0000 C   0  0  1  0  0  0  0  0  0  0  0  0
    6.1471   -7.6128    0.0000 O   0  0  0  0  0  0  0  0  0  0  0  0
    5.4321   -6.3756    0.0000 C   0  0  0  0  0  0  0  0  0  0  0  0
    4.0035   -7.2011    0.0000 O   0  0  0  0  0  0  0  0  0  0  0  0
    4.0041   -8.8511    0.0000 O   0  0  0  0  0  0  0  0  0  0  0  0
    5.4334   -9.6756    0.0000 O   0  0  0  0  0  0  0  0  0  0  0  0
    3.7655  -11.0897    0.0000 C   0  0  2  0  0  0  0  0  0  0  0  0
    4.1707  -11.8083    0.0000 C   0  0  2  0  0  0  0  0  0  0  0  0
    4.9957  -11.8167    0.0000 C   0  0  1  0  0  0  0  0  0  0  0  0
    5.4154  -11.1064    0.0000 C   0  0  2  0  0  0  0  0  0  0  0  0
    5.0101  -10.3878    0.0000 C   0  0  1  0  0  0  0  0  0  0  0  0
    4.1852  -10.3795    0.0000 O   0  0  0  0  0  0  0  0  0  0  0  0
    2.9405  -11.0814    0.0000 C   0  0  0  0  0  0  0  0  0  0  0  0
    5.4009  -12.5353    0.0000 O   0  0  0  0  0  0  0  0  0  0  0  0
    3.7510  -12.5186    0.0000 O   0  0  0  0  0  0  0  0  0  0  0  0
    6.2403  -11.1147    0.0000 O   0  0  0  0  0  0  0  0  0  0  0  0
    2.5208  -11.7917    0.0000 O   0  0  0  0  0  0  0  0  0  0  0  0
    2.5723   -7.1929    0.0000 C   0  0  2  0  0  0  0  0  0  0  0  0
    1.8581   -7.6059    0.0000 C   0  0  2  0  0  0  0  0  0  0  0  0
    1.8587   -8.4309    0.0000 C   0  0  1  0  0  0  0  0  0  0  0  0
    2.5734   -8.8429    0.0000 C   0  0  2  0  0  0  0  0  0  0  0  0
    3.2876   -8.4300    0.0000 C   0  0  1  0  0  0  0  0  0  0  0  0
    3.2871   -7.6050    0.0000 O   0  0  0  0  0  0  0  0  0  0  0  0
    2.5718   -6.3679    0.0000 C   0  0  0  0  0  0  0  0  0  0  0  0
    1.1444   -8.8438    0.0000 O   0  0  0  0  0  0  0  0  0  0  0  0
    1.1434   -7.1938    0.0000 O   0  0  0  0  0  0  0  0  0  0  0  0
    2.5739   -9.6679    0.0000 O   0  0  0  0  0  0  0  0  0  0  0  0
    1.8571   -5.9559    0.0000 O   0  0  0  0  0  0  0  0  0  0  0  0
  1  2  1  0  0  0  0
  2  3  1  0  0  0  0
  1  4  1  0  0  0  0
  4  5  1  6  0  0  0
  4  6  1  1  0  0  0
  4  7  1  0  0  0  0
  7  8  1  6  0  0  0
  7  9  1  0  0  0  0
  9 10  1  0  0  0  0
 10 11  1  0  0  0  0
 11 12  1  1  0  0  0
 11 13  1  0  0  0  0
 13 14  1  6  0  0  0
 13 15  1  0  0  0  0
 15 16  1  0  0  0  0
 16 17  1  0  0  0  0
 17 18  1  1  0  0  0
 17 19  1  0  0  0  0
 19 20  1  0  0  0  0
 20 21  1  0  0  0  0
 21 22  1  1  0  0  0
 21 23  1  6  0  0  0
 21 24  1  0  0  0  0
 24 25  1  0  0  0  0
 17 25  1  0  0  0  0
 25 26  1  0  0  0  0
 13 26  1  0  0  0  0
 26 27  1  1  0  0  0
 26 28  1  0  0  0  0
 28 29  2  0  0  0  0
 29 30  1  0  0  0  0
 11 30  1  0  0  0  0
 30 31  1  0  0  0  0
  3 31  1  0  0  0  0
  7 31  1  0  0  0  0
 31 32  1  1  0  0  0
  5 33  1  0  0  0  0
 16 34  1  1  0  0  0
  1 35  1  1  0  0  0
 30 36  1  6  0  0  0
 25 27  1  1  0  0  0
 37 38  1  0  0  0  0
 38 39  1  0  0  0  0
 39 40  1  0  0  0  0
 40 41  1  0  0  0  0
 41 42  1  0  0  0  0
 42 37  1  0  0  0  0
 37 43  1  1  0  0  0
 38 44  1  1  0  0  0
 39 45  1  1  0  0  0
 40 46  1  6  0  0  0
 47 48  1  0  0  0  0
 48 49  1  0  0  0  0
 49 50  1  0  0  0  0
 50 51  1  0  0  0  0
 51 52  1  0  0  0  0
 52 47  1  0  0  0  0
 47 53  1  1  0  0  0
 49 54  1  1  0  0  0
 48 55  1  6  0  0  0
 50 56  1  6  0  0  0
 53 57  1  0  0  0  0
 58 59  1  0  0  0  0
 59 60  1  0  0  0  0
 60 61  1  0  0  0  0
 61 62  1  0  0  0  0
 62 63  1  0  0  0  0
 63 58  1  0  0  0  0
 58 64  1  1  0  0  0
 60 65  1  1  0  0  0
 59 66  1  6  0  0  0
 61 67  1  6  0  0  0
 64 68  1  0  0  0  0
 51 46  1  1  0  0  0
 62 45  1  1  0  0  0
 41 35  1  1  0  0  0
M  END
>  <cdx:fragmentId>
5

$$$$
