98742.cdx
  Mrv1902 05222410212D          

 68 75  0  0  0  0            999 V2000
    7.4040  -10.6716    0.0000 C   0  0  1  0  0  0  0  0  0  0  0  0
    7.4040   -9.8466    0.0000 C   0  0  0  0  0  0  0  0  0  0  0  0
    8.1185   -9.4341    0.0000 C   0  0  0  0  0  0  0  0  0  0  0  0
    8.1185  -11.0841    0.0000 C   0  0  2  0  0  0  0  0  0  0  0  0
    8.5310  -11.7986    0.0000 C   0  0  0  0  0  0  0  0  0  0  0  0
    7.7060  -11.7986    0.0000 C   0  0  0  0  0  0  0  0  0  0  0  0
    8.8330  -10.6716    0.0000 C   0  0  2  0  0  0  0  0  0  0  0  0
    8.8330  -11.4966    0.0000 H   0  0  0  0  0  0  0  0  0  0  0  0
    9.5474  -11.0841    0.0000 C   0  0  0  0  0  0  0  0  0  0  0  0
   10.2619  -10.6716    0.0000 C   0  0  0  0  0  0  0  0  0  0  0  0
   10.2619   -9.8466    0.0000 C   0  0  1  0  0  0  0  0  0  0  0  0
   10.2619   -9.0216    0.0000 C   0  0  0  0  0  0  0  0  0  0  0  0
   10.9764   -9.4341    0.0000 C   0  0  2  0  0  0  0  0  0  0  0  0
   10.9764  -10.2591    0.0000 C   0  0  0  0  0  0  0  0  0  0  0  0
   11.6908   -9.8466    0.0000 C   0  0  0  0  0  0  0  0  0  0  0  0
   12.4053   -9.4341    0.0000 C   0  0  2  0  0  0  0  0  0  0  0  0
   12.4053   -8.6091    0.0000 C   0  0  1  0  0  0  0  0  0  0  0  0
   13.1198   -9.0216    0.0000 C   0  0  0  0  0  0  0  0  0  0  0  0
   13.1198   -8.1966    0.0000 C   0  0  0  0  0  0  0  0  0  0  0  0
   13.1198   -7.3716    0.0000 C   0  0  0  0  0  0  0  0  0  0  0  0
   12.4053   -6.9591    0.0000 C   0  0  1  0  0  0  0  0  0  0  0  0
   11.9928   -6.2446    0.0000 C   0  0  0  0  0  0  0  0  0  0  0  0
   12.8178   -6.2446    0.0000 C   0  0  0  0  0  0  0  0  0  0  0  0
   11.6908   -7.3716    0.0000 C   0  0  0  0  0  0  0  0  0  0  0  0
   11.6908   -8.1966    0.0000 C   0  0  0  0  0  0  0  0  0  0  0  0
   10.9764   -8.6091    0.0000 C   0  0  0  0  0  0  0  0  0  0  0  0
   10.2619   -8.1966    0.0000 C   0  0  0  0  0  0  0  0  0  0  0  0
    9.5474   -8.6091    0.0000 C   0  0  0  0  0  0  0  0  0  0  0  0
    9.5474   -9.4341    0.0000 C   0  0  2  0  0  0  0  0  0  0  0  0
    8.8330   -9.8466    0.0000 C   0  0  1  0  0  0  0  0  0  0  0  0
    8.8330   -9.0216    0.0000 C   0  0  0  0  0  0  0  0  0  0  0  0
   11.1678   -6.2446    0.0000 O   0  0  0  0  0  0  0  0  0  0  0  0
   13.8343   -8.6091    0.0000 O   0  0  0  0  0  0  0  0  0  0  0  0
   13.1198   -9.8466    0.0000 O   0  0  0  0  0  0  0  0  0  0  0  0
    6.6895  -11.0841    0.0000 O   0  0  0  0  0  0  0  0  0  0  0  0
    9.5474  -10.2591    0.0000 H   0  0  0  0  0  0  0  0  0  0  0  0
    5.2721   -9.4295    0.0000 C   0  0  2  0  0  0  0  0  0  0  0  0
    4.5576   -9.8420    0.0000 C   0  0  2  0  0  0  0  0  0  0  0  0
    4.5575  -10.6670    0.0000 C   0  0  1  0  0  0  0  0  0  0  0  0
    5.2720  -11.0795    0.0000 C   0  0  2  0  0  0  0  0  0  0  0  0
    5.9865  -10.6670    0.0000 C   0  0  1  0  0  0  0  0  0  0  0  0
    5.9865   -9.8420    0.0000 O   0  0  0  0  0  0  0  0  0  0  0  0
    5.2721   -8.6045    0.0000 C   0  0  0  0  0  0  0  0  0  0  0  0
    3.8431  -11.0795    0.0000 O   0  0  0  0  0  0  0  0  0  0  0  0
    3.8431   -9.4295    0.0000 O   0  0  0  0  0  0  0  0  0  0  0  0
    5.2720  -11.9045    0.0000 O   0  0  0  0  0  0  0  0  0  0  0  0
    4.5576   -8.1920    0.0000 O   0  0  0  0  0  0  0  0  0  0  0  0
    5.2944   -6.1299    0.0000 C   0  0  2  0  0  0  0  0  0  0  0  0
    4.5844   -5.7096    0.0000 C   0  0  2  0  0  0  0  0  0  0  0  0
    3.8655   -6.1143    0.0000 C   0  0  1  0  0  0  0  0  0  0  0  0
    3.8565   -6.9392    0.0000 C   0  0  2  0  0  0  0  0  0  0  0  0
    4.5665   -7.3595    0.0000 C   0  0  1  0  0  0  0  0  0  0  0  0
    5.2854   -6.9548    0.0000 O   0  0  0  0  0  0  0  0  0  0  0  0
    6.0133   -5.7252    0.0000 C   0  0  0  0  0  0  0  0  0  0  0  0
    3.1556   -5.6940    0.0000 O   0  0  0  0  0  0  0  0  0  0  0  0
    4.5934   -4.8846    0.0000 O   0  0  0  0  0  0  0  0  0  0  0  0
    3.1376   -7.3439    0.0000 O   0  0  0  0  0  0  0  0  0  0  0  0
    6.0223   -4.9002    0.0000 O   0  0  0  0  0  0  0  0  0  0  0  0
    1.7610   -8.7135    0.0000 C   0  0  1  0  0  0  0  0  0  0  0  0
    1.3501   -9.4288    0.0000 C   0  0  1  0  0  0  0  0  0  0  0  0
    1.7642  -10.1424    0.0000 C   0  0  2  0  0  0  0  0  0  0  0  0
    2.5892  -10.1406    0.0000 C   0  0  2  0  0  0  0  0  0  0  0  0
    3.0001   -9.4252    0.0000 C   0  0  1  0  0  0  0  0  0  0  0  0
    2.5860   -8.7116    0.0000 O   0  0  0  0  0  0  0  0  0  0  0  0
    0.5251   -9.4307    0.0000 O   0  0  0  0  0  0  0  0  0  0  0  0
    1.3470   -7.9999    0.0000 C   0  0  0  0  0  0  0  0  0  0  0  0
    1.3533  -10.8578    0.0000 O   0  0  0  0  0  0  0  0  0  0  0  0
    3.0032  -10.8541    0.0000 O   0  0  0  0  0  0  0  0  0  0  0  0
  1  2  1  0  0  0  0
  2  3  1  0  0  0  0
  1  4  1  0  0  0  0
  4  5  1  6  0  0  0
  4  6  1  1  0  0  0
  4  7  1  0  0  0  0
  7  8  1  6  0  0  0
  7  9  1  0  0  0  0
  9 10  1  0  0  0  0
 10 11  1  0  0  0  0
 11 12  1  1  0  0  0
 11 13  1  0  0  0  0
 13 14  1  6  0  0  0
 13 15  1  0  0  0  0
 15 16  1  0  0  0  0
 16 17  1  0  0  0  0
 17 18  1  1  0  0  0
 17 19  1  0  0  0  0
 19 20  1  0  0  0  0
 20 21  1  0  0  0  0
 21 22  1  1  0  0  0
 21 23  1  6  0  0  0
 21 24  1  0  0  0  0
 24 25  1  0  0  0  0
 17 25  1  0  0  0  0
 25 26  2  0  0  0  0
 13 26  1  0  0  0  0
 26 27  1  0  0  0  0
 27 28  2  0  0  0  0
 28 29  1  0  0  0  0
 11 29  1  0  0  0  0
 29 30  1  0  0  0  0
  3 30  1  0  0  0  0
  7 30  1  0  0  0  0
 30 31  1  1  0  0  0
 22 32  1  0  0  0  0
 18 33  1  0  0  0  0
 16 34  1  6  0  0  0
  1 35  1  1  0  0  0
 29 36  1  6  0  0  0
 37 38  1  0  0  0  0
 38 39  1  0  0  0  0
 39 40  1  0  0  0  0
 40 41  1  0  0  0  0
 41 42  1  0  0  0  0
 42 37  1  0  0  0  0
 37 43  1  1  0  0  0
 39 44  1  1  0  0  0
 38 45  1  6  0  0  0
 40 46  1  6  0  0  0
 43 47  1  0  0  0  0
 48 49  1  0  0  0  0
 49 50  1  0  0  0  0
 50 51  1  0  0  0  0
 51 52  1  0  0  0  0
 52 53  1  0  0  0  0
 53 48  1  0  0  0  0
 48 54  1  1  0  0  0
 50 55  1  1  0  0  0
 49 56  1  6  0  0  0
 51 57  1  6  0  0  0
 54 58  1  0  0  0  0
 59 60  1  0  0  0  0
 60 61  1  0  0  0  0
 61 62  1  0  0  0  0
 62 63  1  0  0  0  0
 63 64  1  0  0  0  0
 64 59  1  0  0  0  0
 60 65  1  1  0  0  0
 59 66  1  6  0  0  0
 61 67  1  6  0  0  0
 62 68  1  6  0  0  0
 63 45  1  1  0  0  0
 52 47  1  1  0  0  0
 41 35  1  1  0  0  0
M  END
>  <cdx:fragmentId>
5

$$$$
