98741.cdx
  Mrv1902 05222410202D          

 35 37  0  0  0  0            999 V2000
    7.9014   -6.4231    0.0000 C   0  0  0  0  0  0  0  0  0  0  0  0
    7.1835   -6.0166    0.0000 C   0  0  0  0  0  0  0  0  0  0  0  0
    5.0506   -7.2721    0.0000 C   0  0  0  0  0  0  0  0  0  0  0  0
    5.7685   -7.6785    0.0000 C   0  0  0  0  0  0  0  0  0  0  0  0
    6.4795   -7.2600    0.0000 C   0  0  0  0  0  0  0  0  0  0  0  0
    6.4725   -6.4351    0.0000 C   0  0  0  0  0  0  0  0  0  0  0  0
    5.7546   -6.0286    0.0000 C   0  0  1  0  0  0  0  0  0  0  0  0
    5.0436   -6.4471    0.0000 C   0  0  0  0  0  0  0  0  0  0  0  0
    5.7754   -8.5035    0.0000 O   0  0  0  0  0  0  0  0  0  0  0  0
    7.1974   -7.6665    0.0000 C   0  0  0  0  0  0  0  0  0  0  0  0
    5.3361   -5.3176    0.0000 C   0  0  0  0  0  0  0  0  0  0  0  0
    6.1611   -5.3107    0.0000 C   0  0  0  0  0  0  0  0  0  0  0  0
    8.6124   -6.0046    0.0000 C   0  0  2  0  0  0  0  0  0  0  0  0
    8.6054   -5.1796    0.0000 C   0  0  0  0  0  0  0  0  0  0  0  0
    9.3397   -6.4037    0.0000 O   0  0  0  0  0  0  0  0  0  0  0  0
    8.6082   -8.4712    0.0000 C   0  0  2  0  0  0  0  0  0  0  0  0
    9.3201   -8.8882    0.0000 C   0  0  2  0  0  0  0  0  0  0  0  0
   10.0371   -8.4802    0.0000 C   0  0  1  0  0  0  0  0  0  0  0  0
   10.0423   -7.6552    0.0000 C   0  0  2  0  0  0  0  0  0  0  0  0
    9.3305   -7.2382    0.0000 C   0  0  1  0  0  0  0  0  0  0  0  0
    8.6134   -7.6462    0.0000 O   0  0  0  0  0  0  0  0  0  0  0  0
    7.8912   -8.8792    0.0000 C   0  0  0  0  0  0  0  0  0  0  0  0
   10.7490   -8.8972    0.0000 O   0  0  0  0  0  0  0  0  0  0  0  0
    9.3149   -9.7131    0.0000 O   0  0  0  0  0  0  0  0  0  0  0  0
   10.7594   -7.2472    0.0000 O   0  0  0  0  0  0  0  0  0  0  0  0
    7.8860   -9.7041    0.0000 O   0  0  0  0  0  0  0  0  0  0  0  0
    5.7336  -10.9302    0.0000 C   0  0  2  0  0  0  0  0  0  0  0  0
    6.4455  -11.3472    0.0000 C   0  0  1  0  0  0  0  0  0  0  0  0
    7.1625  -10.9392    0.0000 C   0  0  2  0  0  0  0  0  0  0  0  0
    7.1677  -10.1142    0.0000 C   0  0  1  0  0  0  0  0  0  0  0  0
    6.4559   -9.6972    0.0000 O   0  0  0  0  0  0  0  0  0  0  0  0
    5.7388  -10.1052    0.0000 C   0  0  0  0  0  0  0  0  0  0  0  0
    5.0166  -11.3382    0.0000 O   0  0  0  0  0  0  0  0  0  0  0  0
    6.4403  -12.1722    0.0000 O   0  0  0  0  0  0  0  0  0  0  0  0
    7.8744  -11.3562    0.0000 O   0  0  0  0  0  0  0  0  0  0  0  0
  2  1  2  0  0  0  0
  6  2  1  0  0  0  0
  3  4  1  0  0  0  0
  4  5  1  0  0  0  0
  5  6  2  0  0  0  0
  6  7  1  0  0  0  0
  7  8  1  0  0  0  0
  8  3  1  0  0  0  0
  4  9  2  0  0  0  0
  5 10  1  0  0  0  0
  7 11  1  1  0  0  0
  7 12  1  6  0  0  0
  1 13  1  0  0  0  0
 13 14  1  0  0  0  0
 16 17  1  0  0  0  0
 17 18  1  0  0  0  0
 18 19  1  0  0  0  0
 19 20  1  0  0  0  0
 20 21  1  0  0  0  0
 21 16  1  0  0  0  0
 16 22  1  1  0  0  0
 18 23  1  1  0  0  0
 17 24  1  6  0  0  0
 19 25  1  6  0  0  0
 22 26  1  0  0  0  0
 27 28  1  0  0  0  0
 28 29  1  0  0  0  0
 29 30  1  0  0  0  0
 30 31  1  0  0  0  0
 31 32  1  0  0  0  0
 32 27  1  0  0  0  0
 27 33  1  1  0  0  0
 28 34  1  1  0  0  0
 29 35  1  6  0  0  0
 30 26  1  1  0  0  0
 20 15  1  1  0  0  0
 13 15  1  6  0  0  0
M  END
>  <cdx:fragmentId>
336

$$$$
