987410.cdx
  Mrv1902 05222410262D          

 36 41  0  0  0  0            999 V2000
    8.4498   -8.4050    0.0000 C   0  0  1  0  0  0  0  0  0  0  0  0
    7.7331   -8.8136    0.0000 C   0  0  2  0  0  0  0  0  0  0  0  0
    7.7286   -9.6386    0.0000 C   0  0  0  0  0  0  0  0  0  0  0  0
    7.0119  -10.0472    0.0000 C   0  0  0  0  0  0  0  0  0  0  0  0
    6.2997   -9.6308    0.0000 C   0  0  0  0  0  0  0  0  0  0  0  0
    5.5830  -10.0394    0.0000 C   0  0  0  0  0  0  0  0  0  0  0  0
    4.8707   -9.6230    0.0000 C   0  0  2  0  0  0  0  0  0  0  0  0
    4.8752   -8.7980    0.0000 C   0  0  0  0  0  0  0  0  0  0  0  0
    5.5919   -8.3894    0.0000 C   0  0  0  0  0  0  0  0  0  0  0  0
    6.3042   -8.8058    0.0000 C   0  0  2  0  0  0  0  0  0  0  0  0
    7.0209   -8.3972    0.0000 C   0  0  1  0  0  0  0  0  0  0  0  0
    7.0253   -7.5722    0.0000 C   0  0  0  0  0  0  0  0  0  0  0  0
    7.7421   -7.1636    0.0000 C   0  0  1  0  0  0  0  0  0  0  0  0
    8.4543   -7.5800    0.0000 C   0  0  2  0  0  0  0  0  0  0  0  0
    9.2403   -7.3294    0.0000 C   0  0  1  0  0  0  0  0  0  0  0  0
    9.7288   -6.6646    0.0000 C   0  0  1  0  0  0  0  0  0  0  0  0
   10.5120   -6.9238    0.0000 C   0  0  1  0  0  0  0  0  0  0  0  0
   11.2287   -6.5152    0.0000 C   0  0  0  0  0  0  0  0  0  0  0  0
   11.9410   -6.9316    0.0000 C   0  0  0  0  0  0  0  0  0  0  0  0
   11.9365   -7.7565    0.0000 C   0  0  1  0  0  0  0  0  0  0  0  0
   11.2198   -8.1651    0.0000 C   0  0  0  0  0  0  0  0  0  0  0  0
   10.5075   -7.7488    0.0000 N   0  0  0  0  0  0  0  0  0  0  0  0
    9.7216   -7.9994    0.0000 C   0  0  1  0  0  0  0  0  0  0  0  0
    9.2330   -8.6642    0.0000 C   0  0  0  0  0  0  0  0  0  0  0  0
    4.1540  -10.0316    0.0000 O   0  0  0  0  0  0  0  0  0  0  0  0
    7.7465   -6.3386    0.0000 O   0  0  0  0  0  0  0  0  0  0  0  0
   12.6487   -8.1729    0.0000 C   0  0  0  0  0  0  0  0  0  0  0  0
    9.4782   -5.8786    0.0000 C   0  0  0  0  0  0  0  0  0  0  0  0
    8.3154   -6.7668    0.0000 C   0  0  0  0  0  0  0  0  0  0  0  0
    6.3086   -7.9808    0.0000 C   0  0  0  0  0  0  0  0  0  0  0  0
    8.4453   -9.2300    0.0000 H   0  0  0  0  0  0  0  0  0  0  0  0
    7.7376   -7.9886    0.0000 H   0  0  0  0  0  0  0  0  0  0  0  0
    7.0164   -9.2222    0.0000 H   0  0  0  0  0  0  0  0  0  0  0  0
    8.8827   -6.5859    0.0000 H   0  0  0  0  0  0  0  0  0  0  0  0
   10.4303   -6.1028    0.0000 H   0  0  0  0  0  0  0  0  0  0  0  0
   10.2028   -8.6695    0.0000 H   0  0  0  0  0  0  0  0  0  0  0  0
  1  2  1  0  0  0  0
  2  3  1  0  0  0  0
  3  4  1  0  0  0  0
  4  5  2  0  0  0  0
  5  6  1  0  0  0  0
  6  7  1  0  0  0  0
  7  8  1  0  0  0  0
  8  9  1  0  0  0  0
  9 10  1  0  0  0  0
 10 11  1  0  0  0  0
 11 12  1  0  0  0  0
 12 13  1  0  0  0  0
 13 14  1  0  0  0  0
 14 15  1  0  0  0  0
 15 16  1  0  0  0  0
 16 17  1  0  0  0  0
 17 18  1  0  0  0  0
 18 19  1  0  0  0  0
 19 20  1  0  0  0  0
 20 21  1  0  0  0  0
 21 22  1  0  0  0  0
 22 23  1  0  0  0  0
 23 24  1  0  0  0  0
  1 24  1  0  0  0  0
  1 14  1  0  0  0  0
 15 23  1  0  0  0  0
 17 22  1  0  0  0  0
  2 11  1  0  0  0  0
  5 10  1  0  0  0  0
  7 25  1  1  0  0  0
 13 26  1  6  0  0  0
 20 27  1  6  0  0  0
 16 28  1  6  0  0  0
 14 29  1  1  0  0  0
 10 30  1  1  0  0  0
  1 31  1  6  0  0  0
  2 32  1  1  0  0  0
 11 33  1  6  0  0  0
 15 34  1  6  0  0  0
 17 35  1  6  0  0  0
 23 36  1  6  0  0  0
M  END
>  <cdx:fragmentId>
108

$$$$
