98746.cdx
  Mrv1902 05222410222D          

 45 48  0  0  0  0            999 V2000
   12.7469   -7.1585    0.0000 C   0  0  0  0  0  0  0  0  0  0  0  0
   12.0324   -6.7460    0.0000 C   0  0  0  0  0  0  0  0  0  0  0  0
   11.3179   -7.1585    0.0000 C   0  0  0  0  0  0  0  0  0  0  0  0
   10.6035   -6.7460    0.0000 C   0  0  0  0  0  0  0  0  0  0  0  0
   12.0324   -5.9210    0.0000 O   0  0  0  0  0  0  0  0  0  0  0  0
    9.8890   -7.1585    0.0000 C   0  0  0  0  0  0  0  0  0  0  0  0
    9.1745   -6.7460    0.0000 C   0  0  0  0  0  0  0  0  0  0  0  0
    8.4601   -7.1585    0.0000 C   0  0  0  0  0  0  0  0  0  0  0  0
    8.4601   -7.9835    0.0000 C   0  0  0  0  0  0  0  0  0  0  0  0
    9.1745   -8.3960    0.0000 C   0  0  0  0  0  0  0  0  0  0  0  0
    9.8890   -7.9835    0.0000 C   0  0  0  0  0  0  0  0  0  0  0  0
    7.7456   -8.3960    0.0000 O   0  0  0  0  0  0  0  0  0  0  0  0
    6.3096   -6.7498    0.0000 C   0  0  2  0  0  0  0  0  0  0  0  0
    5.5941   -7.1607    0.0000 C   0  0  2  0  0  0  0  0  0  0  0  0
    5.5922   -7.9857    0.0000 C   0  0  1  0  0  0  0  0  0  0  0  0
    6.3058   -8.3998    0.0000 C   0  0  2  0  0  0  0  0  0  0  0  0
    7.0212   -7.9890    0.0000 C   0  0  1  0  0  0  0  0  0  0  0  0
    7.0231   -7.1640    0.0000 O   0  0  0  0  0  0  0  0  0  0  0  0
    6.3114   -5.9248    0.0000 C   0  0  0  0  0  0  0  0  0  0  0  0
    4.8768   -8.3965    0.0000 O   0  0  0  0  0  0  0  0  0  0  0  0
    4.8806   -6.7466    0.0000 O   0  0  0  0  0  0  0  0  0  0  0  0
    6.3039   -9.2248    0.0000 O   0  0  0  0  0  0  0  0  0  0  0  0
    5.5979   -5.5107    0.0000 O   0  0  0  0  0  0  0  0  0  0  0  0
    6.2873   -4.2642    0.0000 O   0  0  0  0  0  0  0  0  0  0  0  0
    5.5772   -4.6843    0.0000 C   0  0  0  0  0  0  0  0  0  0  0  0
    4.8584   -4.2794    0.0000 C   0  0  0  0  0  0  0  0  0  0  0  0
    4.8630   -9.2288    0.0000 O   0  0  0  0  0  0  0  0  0  0  0  0
    5.5727   -9.6493    0.0000 C   0  0  0  0  0  0  0  0  0  0  0  0
    5.5635  -10.4742    0.0000 C   0  0  0  0  0  0  0  0  0  0  0  0
    4.8444  -10.8787    0.0000 C   0  0  0  0  0  0  0  0  0  0  0  0
    4.8073  -14.1785    0.0000 O   0  0  0  0  0  0  0  0  0  0  0  0
    4.1068  -12.9330    0.0000 C   0  0  0  0  0  0  0  0  0  0  0  0
    4.8166  -13.3535    0.0000 C   0  0  0  0  0  0  0  0  0  0  0  0
    5.5357  -12.9491    0.0000 C   0  0  0  0  0  0  0  0  0  0  0  0
    5.5449  -12.1241    0.0000 C   0  0  0  0  0  0  0  0  0  0  0  0
    4.8351  -11.7036    0.0000 C   0  0  0  0  0  0  0  0  0  0  0  0
    4.1161  -12.1081    0.0000 C   0  0  0  0  0  0  0  0  0  0  0  0
    4.8452   -3.4545    0.0000 C   0  0  0  0  0  0  0  0  0  0  0  0
    4.1242   -3.0535    0.0000 C   0  0  0  0  0  0  0  0  0  0  0  0
    3.4164   -3.4773    0.0000 C   0  0  0  0  0  0  0  0  0  0  0  0
    3.4164   -4.3022    0.0000 C   0  0  0  0  0  0  0  0  0  0  0  0
    4.1242   -4.7033    0.0000 C   0  0  0  0  0  0  0  0  0  0  0  0
    2.7036   -4.7176    0.0000 O   0  0  0  0  0  0  0  0  0  0  0  0
    2.6987   -3.0706    0.0000 O   0  0  0  0  0  0  0  0  0  0  0  0
    4.1110   -2.2286    0.0000 O   0  0  0  0  0  0  0  0  0  0  0  0
  1  2  1  0  0  0  0
  2  3  1  0  0  0  0
  3  4  1  0  0  0  0
  2  5  2  0  0  0  0
  6  7  1  0  0  0  0
  7  8  2  0  0  0  0
  8  9  1  0  0  0  0
  9 10  2  0  0  0  0
 10 11  1  0  0  0  0
  6 11  2  0  0  0  0
  9 12  1  0  0  0  0
  4  6  1  0  0  0  0
 13 14  1  0  0  0  0
 14 15  1  0  0  0  0
 15 16  1  0  0  0  0
 16 17  1  0  0  0  0
 17 18  1  0  0  0  0
 18 13  1  0  0  0  0
 13 19  1  1  0  0  0
 15 20  1  1  0  0  0
 14 21  1  6  0  0  0
 16 22  1  6  0  0  0
 19 23  1  0  0  0  0
 17 12  1  1  0  0  0
 25 24  2  0  0  0  0
 26 25  1  0  0  0  0
 25 23  1  0  0  0  0
 28 27  2  0  0  0  0
 29 28  1  0  0  0  0
 30 29  2  0  0  0  0
 36 30  1  0  0  0  0
 33 31  1  0  0  0  0
 32 37  1  0  0  0  0
 33 32  2  0  0  0  0
 34 33  1  0  0  0  0
 35 34  2  0  0  0  0
 36 35  1  0  0  0  0
 37 36  2  0  0  0  0
 28 22  1  0  0  0  0
 26 38  2  0  0  0  0
 38 39  1  0  0  0  0
 39 40  2  0  0  0  0
 40 41  1  0  0  0  0
 41 42  2  0  0  0  0
 42 26  1  0  0  0  0
 41 43  1  0  0  0  0
 40 44  1  0  0  0  0
 39 45  1  0  0  0  0
M  END
>  <cdx:fragmentId>
15

$$$$
