98749.cdx
  Mrv1902 05222410232D          

 44 47  0  0  0  0            999 V2000
   12.2041  -10.0512    0.0000 O   0  0  0  0  0  0  0  0  0  0  0  0
   10.0596   -9.6446    0.0000 C   0  0  0  0  0  0  0  0  0  0  0  0
   10.7752  -10.0551    0.0000 C   0  0  0  0  0  0  0  0  0  0  0  0
   11.4885   -9.6407    0.0000 C   0  0  0  0  0  0  0  0  0  0  0  0
   11.4863   -8.8157    0.0000 C   0  0  0  0  0  0  0  0  0  0  0  0
   10.7707   -8.4051    0.0000 C   0  0  0  0  0  0  0  0  0  0  0  0
   10.0573   -8.8196    0.0000 C   0  0  0  0  0  0  0  0  0  0  0  0
    7.9105   -7.5879    0.0000 O   0  0  0  0  0  0  0  0  0  0  0  0
    9.3417   -8.4090    0.0000 C   0  0  0  0  0  0  0  0  0  0  0  0
    8.6284   -8.8235    0.0000 C   0  0  0  0  0  0  0  0  0  0  0  0
    7.9128   -8.4129    0.0000 C   0  0  0  0  0  0  0  0  0  0  0  0
    5.7733   -7.2036    0.0000 C   0  0  2  0  0  0  0  0  0  0  0  0
    5.0579   -7.6144    0.0000 C   0  0  2  0  0  0  0  0  0  0  0  0
    5.0560   -8.4394    0.0000 C   0  0  1  0  0  0  0  0  0  0  0  0
    5.7695   -8.8536    0.0000 C   0  0  2  0  0  0  0  0  0  0  0  0
    6.4849   -8.4427    0.0000 C   0  0  1  0  0  0  0  0  0  0  0  0
    6.4868   -7.6177    0.0000 O   0  0  0  0  0  0  0  0  0  0  0  0
    5.7752   -6.3786    0.0000 C   0  0  0  0  0  0  0  0  0  0  0  0
    4.3406   -8.8503    0.0000 O   0  0  0  0  0  0  0  0  0  0  0  0
    4.3444   -7.2003    0.0000 O   0  0  0  0  0  0  0  0  0  0  0  0
    5.7676   -9.6786    0.0000 O   0  0  0  0  0  0  0  0  0  0  0  0
    5.0617   -5.9644    0.0000 O   0  0  0  0  0  0  0  0  0  0  0  0
    5.7510   -4.7180    0.0000 O   0  0  0  0  0  0  0  0  0  0  0  0
    5.0410   -5.1380    0.0000 C   0  0  0  0  0  0  0  0  0  0  0  0
    4.3221   -4.7331    0.0000 C   0  0  0  0  0  0  0  0  0  0  0  0
    4.3267   -9.6825    0.0000 O   0  0  0  0  0  0  0  0  0  0  0  0
    5.0365  -10.1030    0.0000 C   0  0  0  0  0  0  0  0  0  0  0  0
    5.0272  -10.9280    0.0000 C   0  0  0  0  0  0  0  0  0  0  0  0
    4.3082  -11.3324    0.0000 C   0  0  0  0  0  0  0  0  0  0  0  0
    3.5706  -13.3868    0.0000 C   0  0  0  0  0  0  0  0  0  0  0  0
    4.2804  -13.8073    0.0000 C   0  0  0  0  0  0  0  0  0  0  0  0
    4.9994  -13.4028    0.0000 C   0  0  0  0  0  0  0  0  0  0  0  0
    5.0087  -12.5779    0.0000 C   0  0  0  0  0  0  0  0  0  0  0  0
    4.2989  -12.1574    0.0000 C   0  0  0  0  0  0  0  0  0  0  0  0
    3.5798  -12.5618    0.0000 C   0  0  0  0  0  0  0  0  0  0  0  0
    4.3089   -3.9082    0.0000 C   0  0  0  0  0  0  0  0  0  0  0  0
    3.5880   -3.5072    0.0000 C   0  0  0  0  0  0  0  0  0  0  0  0
    2.8802   -3.9311    0.0000 C   0  0  0  0  0  0  0  0  0  0  0  0
    2.8802   -4.7560    0.0000 C   0  0  0  0  0  0  0  0  0  0  0  0
    3.5880   -5.1570    0.0000 C   0  0  0  0  0  0  0  0  0  0  0  0
    2.1674   -5.1714    0.0000 O   0  0  0  0  0  0  0  0  0  0  0  0
    2.1624   -3.5243    0.0000 O   0  0  0  0  0  0  0  0  0  0  0  0
    3.5748   -2.6823    0.0000 O   0  0  0  0  0  0  0  0  0  0  0  0
    7.1985   -8.8568    0.0000 O   0  0  0  0  0  0  0  0  0  0  0  0
  9  7  1  0  0  0  0
  4  1  1  0  0  0  0
  7  2  2  0  0  0  0
  3  2  1  0  0  0  0
  4  3  2  0  0  0  0
  5  4  1  0  0  0  0
  6  5  2  0  0  0  0
  7  6  1  0  0  0  0
 11  8  2  0  0  0  0
 10  9  1  0  0  0  0
 11 10  1  0  0  0  0
 12 13  1  0  0  0  0
 13 14  1  0  0  0  0
 14 15  1  0  0  0  0
 15 16  1  0  0  0  0
 16 17  1  0  0  0  0
 17 12  1  0  0  0  0
 12 18  1  1  0  0  0
 14 19  1  1  0  0  0
 13 20  1  6  0  0  0
 15 21  1  6  0  0  0
 18 22  1  0  0  0  0
 24 23  2  0  0  0  0
 25 24  1  0  0  0  0
 24 22  1  0  0  0  0
 27 26  2  0  0  0  0
 28 27  1  0  0  0  0
 29 28  2  0  0  0  0
 34 29  1  0  0  0  0
 30 35  1  0  0  0  0
 31 30  2  0  0  0  0
 32 31  1  0  0  0  0
 33 32  2  0  0  0  0
 34 33  1  0  0  0  0
 35 34  2  0  0  0  0
 27 21  1  0  0  0  0
 25 36  2  0  0  0  0
 36 37  1  0  0  0  0
 37 38  2  0  0  0  0
 38 39  1  0  0  0  0
 39 40  2  0  0  0  0
 40 25  1  0  0  0  0
 39 41  1  0  0  0  0
 38 42  1  0  0  0  0
 37 43  1  0  0  0  0
 16 44  1  1  0  0  0
 11 44  1  0  0  0  0
M  END
>  <cdx:fragmentId>
15

$$$$
