98754.cdx
  Mrv1902 05222410212D          

 48 53  0  0  0  0            999 V2000
    6.1943   -9.4666    0.0000 C   0  0  1  0  0  0  0  0  0  0  0  0
    6.1943   -8.6416    0.0000 C   0  0  0  0  0  0  0  0  0  0  0  0
    6.9088   -8.2291    0.0000 C   0  0  0  0  0  0  0  0  0  0  0  0
    6.9088   -9.8791    0.0000 C   0  0  1  0  0  0  0  0  0  0  0  0
    7.6232   -9.4666    0.0000 C   0  0  2  0  0  0  0  0  0  0  0  0
    7.6232  -10.2916    0.0000 H   0  0  0  0  0  0  0  0  0  0  0  0
    8.3377   -9.8791    0.0000 C   0  0  0  0  0  0  0  0  0  0  0  0
    9.0522   -9.4666    0.0000 C   0  0  0  0  0  0  0  0  0  0  0  0
    9.0522   -8.6416    0.0000 C   0  0  1  0  0  0  0  0  0  0  0  0
    9.0522   -7.8166    0.0000 C   0  0  0  0  0  0  0  0  0  0  0  0
    9.7666   -8.2291    0.0000 C   0  0  2  0  0  0  0  0  0  0  0  0
    9.7666   -9.0541    0.0000 C   0  0  0  0  0  0  0  0  0  0  0  0
   10.4811   -8.6416    0.0000 C   0  0  0  0  0  0  0  0  0  0  0  0
   11.1956   -8.2291    0.0000 C   0  0  0  0  0  0  0  0  0  0  0  0
   11.1956   -7.4041    0.0000 C   0  0  1  0  0  0  0  0  0  0  0  0
   11.9100   -7.8166    0.0000 C   0  0  0  0  0  0  0  0  0  0  0  0
   11.9100   -6.9916    0.0000 C   0  0  0  0  0  0  0  0  0  0  0  0
   11.9100   -6.1666    0.0000 C   0  0  0  0  0  0  0  0  0  0  0  0
   11.1956   -5.7541    0.0000 C   0  0  0  0  0  0  0  0  0  0  0  0
   10.7831   -5.0396    0.0000 C   0  0  0  0  0  0  0  0  0  0  0  0
   11.6081   -5.0396    0.0000 C   0  0  0  0  0  0  0  0  0  0  0  0
   10.4811   -6.1666    0.0000 C   0  0  0  0  0  0  0  0  0  0  0  0
   10.4811   -6.9916    0.0000 C   0  0  0  0  0  0  0  0  0  0  0  0
    9.7666   -7.4041    0.0000 C   0  0  0  0  0  0  0  0  0  0  0  0
    9.0522   -6.9916    0.0000 C   0  0  0  0  0  0  0  0  0  0  0  0
    8.3377   -7.4041    0.0000 C   0  0  0  0  0  0  0  0  0  0  0  0
    8.3377   -8.2291    0.0000 C   0  0  2  0  0  0  0  0  0  0  0  0
    7.6232   -8.6416    0.0000 C   0  0  1  0  0  0  0  0  0  0  0  0
    7.6232   -7.8166    0.0000 C   0  0  0  0  0  0  0  0  0  0  0  0
   11.9100   -8.6416    0.0000 O   0  0  0  0  0  0  0  0  0  0  0  0
   12.6245   -7.4041    0.0000 O   0  0  0  0  0  0  0  0  0  0  0  0
    8.3377   -9.0541    0.0000 H   0  0  0  0  0  0  0  0  0  0  0  0
    5.4798   -9.8791    0.0000 O   0  0  0  0  0  0  0  0  0  0  0  0
    4.0525   -8.2196    0.0000 C   0  0  2  0  0  0  0  0  0  0  0  0
    3.3383   -8.6325    0.0000 C   0  0  2  0  0  0  0  0  0  0  0  0
    3.3387   -9.4575    0.0000 C   0  0  1  0  0  0  0  0  0  0  0  0
    4.0535   -9.8696    0.0000 C   0  0  2  0  0  0  0  0  0  0  0  0
    4.7677   -9.4566    0.0000 C   0  0  1  0  0  0  0  0  0  0  0  0
    4.7672   -8.6316    0.0000 O   0  0  0  0  0  0  0  0  0  0  0  0
    4.0520   -7.3946    0.0000 C   0  0  0  0  0  0  0  0  0  0  0  0
    2.6245   -9.8704    0.0000 O   0  0  0  0  0  0  0  0  0  0  0  0
    2.6236   -8.2204    0.0000 O   0  0  0  0  0  0  0  0  0  0  0  0
    4.0539  -10.6946    0.0000 O   0  0  0  0  0  0  0  0  0  0  0  0
    3.3373   -6.9825    0.0000 O   0  0  0  0  0  0  0  0  0  0  0  0
    6.4963  -10.5936    0.0000 C   0  0  0  0  0  0  0  0  0  0  0  0
    7.3213  -10.5936    0.0000 C   0  0  0  0  0  0  0  0  0  0  0  0
    6.9088  -11.3081    0.0000 O   0  0  0  0  0  0  0  0  0  0  0  0
    8.1463  -10.5936    0.0000 O   0  0  0  0  0  0  0  0  0  0  0  0
  1  2  1  0  0  0  0
  2  3  1  0  0  0  0
  1  4  1  0  0  0  0
  4  5  1  0  0  0  0
  5  6  1  6  0  0  0
  5  7  1  0  0  0  0
  7  8  1  0  0  0  0
  8  9  1  0  0  0  0
  9 10  1  1  0  0  0
  9 11  1  0  0  0  0
 11 12  1  6  0  0  0
 11 13  1  0  0  0  0
 13 14  1  0  0  0  0
 14 15  1  0  0  0  0
 15 16  1  1  0  0  0
 15 17  1  0  0  0  0
 17 18  1  0  0  0  0
 18 19  1  0  0  0  0
 19 20  1  0  0  0  0
 19 21  1  0  0  0  0
 19 22  1  0  0  0  0
 22 23  1  0  0  0  0
 15 23  1  0  0  0  0
 23 24  2  0  0  0  0
 11 24  1  0  0  0  0
 24 25  1  0  0  0  0
 25 26  2  0  0  0  0
 26 27  1  0  0  0  0
  9 27  1  0  0  0  0
 27 28  1  0  0  0  0
  3 28  1  0  0  0  0
  5 28  1  0  0  0  0
 28 29  1  1  0  0  0
 16 30  2  0  0  0  0
 16 31  1  0  0  0  0
 27 32  1  6  0  0  0
  1 33  1  1  0  0  0
 34 35  1  0  0  0  0
 35 36  1  0  0  0  0
 36 37  1  0  0  0  0
 37 38  1  0  0  0  0
 38 39  1  0  0  0  0
 39 34  1  0  0  0  0
 34 40  1  1  0  0  0
 36 41  1  1  0  0  0
 35 42  1  6  0  0  0
 37 43  1  6  0  0  0
 40 44  1  0  0  0  0
 38 33  1  1  0  0  0
  4 45  1  1  0  0  0
  4 46  1  0  0  0  0
 46 47  1  0  0  0  0
 46 48  2  0  0  0  0
M  END
>  <cdx:fragmentId>
5

$$$$
