98750.cdx
  Mrv1902 05222410222D          

 47 51  0  0  0  0            999 V2000
    8.6347   -6.8894    0.0000 O   0  0  0  0  0  0  0  0  0  0  0  0
    6.4790   -7.2933    0.0000 C   0  0  2  0  0  0  0  0  0  0  0  0
    6.4723   -8.1182    0.0000 C   0  0  2  0  0  0  0  0  0  0  0  0
    7.1833   -8.5366    0.0000 C   0  0  1  0  0  0  0  0  0  0  0  0
    7.9012   -8.1299    0.0000 C   0  0  2  0  0  0  0  0  0  0  0  0
    7.9079   -7.3049    0.0000 C   0  0  1  0  0  0  0  0  0  0  0  0
    7.1968   -6.8866    0.0000 O   0  0  0  0  0  0  0  0  0  0  0  0
    5.7679   -6.8750    0.0000 C   0  0  0  0  0  0  0  0  0  0  0  0
    7.1766   -9.3615    0.0000 O   0  0  0  0  0  0  0  0  0  0  0  0
    5.7544   -8.5249    0.0000 O   0  0  0  0  0  0  0  0  0  0  0  0
    5.0501   -7.2816    0.0000 O   0  0  0  0  0  0  0  0  0  0  0  0
    4.3148   -6.0464    0.0000 O   0  0  0  0  0  0  0  0  0  0  0  0
    4.3201   -6.8714    0.0000 C   0  0  0  0  0  0  0  0  0  0  0  0
    3.6083   -7.2885    0.0000 C   0  0  0  0  0  0  0  0  0  0  0  0
    2.8890   -6.8844    0.0000 C   0  0  0  0  0  0  0  0  0  0  0  0
    2.1794   -7.3053    0.0000 C   0  0  0  0  0  0  0  0  0  0  0  0
    2.1892   -8.1303    0.0000 C   0  0  0  0  0  0  0  0  0  0  0  0
    2.9018   -8.5457    0.0000 C   0  0  0  0  0  0  0  0  0  0  0  0
    3.6047   -8.1362    0.0000 C   0  0  0  0  0  0  0  0  0  0  0  0
    2.9017   -9.3707    0.0000 O   0  0  0  0  0  0  0  0  0  0  0  0
    1.4763   -8.5455    0.0000 O   0  0  0  0  0  0  0  0  0  0  0  0
    1.4601   -6.9013    0.0000 O   0  0  0  0  0  0  0  0  0  0  0  0
    7.1867  -11.8641    0.0000 C   0  0  0  0  0  0  0  0  0  0  0  0
    7.1834  -11.0391    0.0000 C   0  0  0  0  0  0  0  0  0  0  0  0
    6.4673  -10.6294    0.0000 C   0  0  0  0  0  0  0  0  0  0  0  0
    5.7545  -11.0448    0.0000 C   0  0  0  0  0  0  0  0  0  0  0  0
    5.7578  -11.8697    0.0000 C   0  0  0  0  0  0  0  0  0  0  0  0
    6.4739  -12.2794    0.0000 C   0  0  0  0  0  0  0  0  0  0  0  0
    7.8963  -10.6238    0.0000 C   0  0  0  0  0  0  0  0  0  0  0  0
    7.8930   -9.7988    0.0000 C   0  0  0  0  0  0  0  0  0  0  0  0
    8.6058   -9.3835    0.0000 C   0  0  0  0  0  0  0  0  0  0  0  0
    9.3219   -9.7931    0.0000 O   0  0  0  0  0  0  0  0  0  0  0  0
   12.9216   -6.8826    0.0000 C   0  0  0  0  0  0  0  0  0  0  0  0
   10.0676   -9.3622    0.0000 C   0  0  0  0  0  0  0  0  0  0  0  0
    8.6122   -8.5482    0.0000 O   0  0  0  0  0  0  0  0  0  0  0  0
   11.4926   -6.8849    0.0000 O   0  0  0  0  0  0  0  0  0  0  0  0
   10.7788   -7.2985    0.0000 C   0  0  0  0  0  0  0  0  0  0  0  0
   10.0637   -6.8872    0.0000 C   0  0  0  0  0  0  0  0  0  0  0  0
    9.3499   -7.3008    0.0000 C   0  0  0  0  0  0  0  0  0  0  0  0
    9.3512   -8.1258    0.0000 C   0  0  0  0  0  0  0  0  0  0  0  0
   10.0663   -8.5372    0.0000 C   0  0  0  0  0  0  0  0  0  0  0  0
   10.7801   -8.1235    0.0000 C   0  0  0  0  0  0  0  0  0  0  0  0
   11.4965   -9.3599    0.0000 O   0  0  0  0  0  0  0  0  0  0  0  0
   11.4952   -8.5349    0.0000 C   0  0  0  0  0  0  0  0  0  0  0  0
   12.2091   -8.1213    0.0000 C   0  0  0  0  0  0  0  0  0  0  0  0
   12.2077   -7.2963    0.0000 C   0  0  0  0  0  0  0  0  0  0  0  0
    5.0449  -12.2851    0.0000 O   0  0  0  0  0  0  0  0  0  0  0  0
  2  3  1  0  0  0  0
  3  4  1  0  0  0  0
  4  5  1  0  0  0  0
  5  6  1  0  0  0  0
  6  7  1  0  0  0  0
  7  2  1  0  0  0  0
  2  8  1  1  0  0  0
  4  9  1  1  0  0  0
  3 10  1  6  0  0  0
 31 35  1  0  0  0  0
  5 35  1  6  0  0  0
  8 11  1  0  0  0  0
  6  1  1  1  0  0  0
 13 12  2  0  0  0  0
 14 13  1  0  0  0  0
 14 15  2  0  0  0  0
 15 16  1  0  0  0  0
 16 17  2  0  0  0  0
 17 18  1  0  0  0  0
 18 19  2  0  0  0  0
 19 14  1  0  0  0  0
 18 20  1  0  0  0  0
 17 21  1  0  0  0  0
 16 22  1  0  0  0  0
 23 24  2  0  0  0  0
 24 25  1  0  0  0  0
 25 26  2  0  0  0  0
 26 27  1  0  0  0  0
 27 28  2  0  0  0  0
 28 23  1  0  0  0  0
 24 29  1  0  0  0  0
 29 30  2  0  0  0  0
 30 31  1  0  0  0  0
 31 32  2  0  0  0  0
 13 11  1  0  0  0  0
 46 33  1  0  0  0  0
 41 34  1  0  0  0  0
 39  1  1  0  0  0  0
 46 36  1  0  0  0  0
 37 36  1  0  0  0  0
 42 37  2  0  0  0  0
 38 37  1  0  0  0  0
 39 38  2  0  0  0  0
 40 39  1  0  0  0  0
 41 40  2  0  0  0  0
 42 41  1  0  0  0  0
 44 42  1  0  0  0  0
 44 43  2  0  0  0  0
 45 44  1  0  0  0  0
 46 45  2  0  0  0  0
 27 47  1  0  0  0  0
M  END
>  <cdx:fragmentId>
5

$$$$
