98753.cdx
  Mrv1902 05222410222D          

 28 30  0  0  0  0            999 V2000
    5.8847   -6.9994    0.0000 O   0  0  0  0  0  0  0  0  0  0  0  0
    3.7290   -7.4033    0.0000 C   0  0  2  0  0  0  0  0  0  0  0  0
    3.7223   -8.2282    0.0000 C   0  0  2  0  0  0  0  0  0  0  0  0
    4.4333   -8.6466    0.0000 C   0  0  1  0  0  0  0  0  0  0  0  0
    5.1512   -8.2399    0.0000 C   0  0  2  0  0  0  0  0  0  0  0  0
    5.1579   -7.4149    0.0000 C   0  0  1  0  0  0  0  0  0  0  0  0
    4.4468   -6.9966    0.0000 O   0  0  0  0  0  0  0  0  0  0  0  0
    3.0179   -6.9850    0.0000 C   0  0  0  0  0  0  0  0  0  0  0  0
    4.4266   -9.4715    0.0000 O   0  0  0  0  0  0  0  0  0  0  0  0
    3.0044   -8.6349    0.0000 O   0  0  0  0  0  0  0  0  0  0  0  0
    2.3001   -7.3916    0.0000 O   0  0  0  0  0  0  0  0  0  0  0  0
   10.1716   -6.9926    0.0000 C   0  0  0  0  0  0  0  0  0  0  0  0
    7.3176   -9.4722    0.0000 C   0  0  0  0  0  0  0  0  0  0  0  0
    5.8622   -8.6582    0.0000 O   0  0  0  0  0  0  0  0  0  0  0  0
    8.7426   -6.9949    0.0000 O   0  0  0  0  0  0  0  0  0  0  0  0
    8.0288   -7.4085    0.0000 C   0  0  0  0  0  0  0  0  0  0  0  0
    7.3137   -6.9972    0.0000 C   0  0  0  0  0  0  0  0  0  0  0  0
    6.5999   -7.4108    0.0000 C   0  0  0  0  0  0  0  0  0  0  0  0
    6.6012   -8.2358    0.0000 C   0  0  0  0  0  0  0  0  0  0  0  0
    7.3163   -8.6472    0.0000 C   0  0  0  0  0  0  0  0  0  0  0  0
    8.0301   -8.2335    0.0000 C   0  0  0  0  0  0  0  0  0  0  0  0
    8.7465   -9.4699    0.0000 O   0  0  0  0  0  0  0  0  0  0  0  0
    8.7452   -8.6449    0.0000 C   0  0  0  0  0  0  0  0  0  0  0  0
    9.4591   -8.2313    0.0000 C   0  0  0  0  0  0  0  0  0  0  0  0
    9.4577   -7.4063    0.0000 C   0  0  0  0  0  0  0  0  0  0  0  0
   10.8867   -7.4040    0.0000 C   0  0  0  0  0  0  0  0  0  0  0  0
   11.6005   -6.9904    0.0000 C   0  0  0  0  0  0  0  0  0  0  0  0
   10.8880   -8.2290    0.0000 O   0  0  0  0  0  0  0  0  0  0  0  0
  2  3  1  0  0  0  0
  3  4  1  0  0  0  0
  4  5  1  0  0  0  0
  5  6  1  0  0  0  0
  6  7  1  0  0  0  0
  7  2  1  0  0  0  0
  2  8  1  1  0  0  0
  4  9  1  1  0  0  0
  3 10  1  6  0  0  0
  5 14  1  6  0  0  0
  8 11  1  0  0  0  0
  6  1  1  1  0  0  0
 25 12  1  0  0  0  0
 20 13  1  0  0  0  0
 18  1  1  0  0  0  0
 25 15  1  0  0  0  0
 16 15  1  0  0  0  0
 21 16  2  0  0  0  0
 17 16  1  0  0  0  0
 18 17  2  0  0  0  0
 19 18  1  0  0  0  0
 20 19  2  0  0  0  0
 21 20  1  0  0  0  0
 23 21  1  0  0  0  0
 23 22  2  0  0  0  0
 24 23  1  0  0  0  0
 25 24  2  0  0  0  0
 12 26  1  0  0  0  0
 26 27  1  0  0  0  0
 26 28  1  0  0  0  0
M  END
>  <cdx:fragmentId>
5

$$$$
