98768.cdx
  Mrv1902 05222410212D          

 42 46  0  0  0  0            999 V2000
    4.4507   -6.9650    0.0000 O   0  0  0  0  0  0  0  0  0  0  0  0
    3.7367   -6.5516    0.0000 C   0  0  2  0  0  0  0  0  0  0  0  0
    3.7377   -5.7266    0.0000 O   0  0  0  0  0  0  0  0  0  0  0  0
    3.0238   -5.3132    0.0000 C   0  0  1  0  0  0  0  0  0  0  0  0
    2.3088   -5.7249    0.0000 C   0  0  2  0  0  0  0  0  0  0  0  0
    2.3078   -6.5499    0.0000 C   0  0  1  0  0  0  0  0  0  0  0  0
    3.0218   -6.9632    0.0000 C   0  0  1  0  0  0  0  0  0  0  0  0
    1.5928   -6.9615    0.0000 O   0  0  0  0  0  0  0  0  0  0  0  0
    3.0248   -4.4882    0.0000 C   0  0  0  0  0  0  0  0  0  0  0  0
    3.0208   -7.7882    0.0000 O   0  0  0  0  0  0  0  0  0  0  0  0
    1.5948   -5.3115    0.0000 O   0  0  0  0  0  0  0  0  0  0  0  0
    2.3108   -4.0749    0.0000 O   0  0  0  0  0  0  0  0  0  0  0  0
    8.7365   -7.7952    0.0000 O   0  0  0  0  0  0  0  0  0  0  0  0
   10.1685   -5.3219    0.0000 O   0  0  0  0  0  0  0  0  0  0  0  0
    4.4527   -5.3150    0.0000 O   0  0  0  0  0  0  0  0  0  0  0  0
    9.4505   -8.2086    0.0000 O   0  0  0  0  0  0  0  0  0  0  0  0
   10.8784   -9.0353    0.0000 O   0  0  0  0  0  0  0  0  0  0  0  0
   12.3084   -8.2121    0.0000 O   0  0  0  0  0  0  0  0  0  0  0  0
   13.0243   -6.9754    0.0000 O   0  0  0  0  0  0  0  0  0  0  0  0
   12.3104   -6.5621    0.0000 C   0  0  0  0  0  0  0  0  0  0  0  0
   11.5954   -6.9737    0.0000 C   0  0  1  0  0  0  0  0  0  0  0  0
   11.5944   -7.7987    0.0000 C   0  0  1  0  0  0  0  0  0  0  0  0
   10.8794   -8.2103    0.0000 C   0  0  2  0  0  0  0  0  0  0  0  0
   10.1655   -7.7969    0.0000 C   0  0  1  0  0  0  0  0  0  0  0  0
   10.1665   -6.9719    0.0000 C   0  0  2  0  0  0  0  0  0  0  0  0
   10.8814   -6.5603    0.0000 O   0  0  0  0  0  0  0  0  0  0  0  0
    7.3076   -7.7935    0.0000 O   0  0  0  0  0  0  0  0  0  0  0  0
    6.5946   -6.5551    0.0000 C   0  0  0  0  0  0  0  0  0  0  0  0
    5.8796   -6.9667    0.0000 C   0  0  0  0  0  0  0  0  0  0  0  0
    5.1657   -6.5534    0.0000 C   0  0  0  0  0  0  0  0  0  0  0  0
    5.1667   -5.7284    0.0000 C   0  0  0  0  0  0  0  0  0  0  0  0
    5.8817   -5.3167    0.0000 C   0  0  0  0  0  0  0  0  0  0  0  0
    6.5956   -5.7301    0.0000 C   0  0  0  0  0  0  0  0  0  0  0  0
    7.3106   -5.3185    0.0000 O   0  0  0  0  0  0  0  0  0  0  0  0
    8.0246   -5.7318    0.0000 C   0  0  0  0  0  0  0  0  0  0  0  0
    8.7395   -5.3202    0.0000 C   0  0  0  0  0  0  0  0  0  0  0  0
    9.4535   -5.7336    0.0000 C   0  0  0  0  0  0  0  0  0  0  0  0
    9.4525   -6.5586    0.0000 C   0  0  0  0  0  0  0  0  0  0  0  0
    8.7375   -6.9702    0.0000 C   0  0  0  0  0  0  0  0  0  0  0  0
    8.0236   -6.5568    0.0000 C   0  0  0  0  0  0  0  0  0  0  0  0
    7.3086   -6.9685    0.0000 C   0  0  0  0  0  0  0  0  0  0  0  0
   10.1675   -6.1469    0.0000 H   0  0  0  0  0  0  0  0  0  0  0  0
  2  1  1  1  0  0  0
  2  3  1  0  0  0  0
  3  4  1  0  0  0  0
  4  5  1  0  0  0  0
  5  6  1  0  0  0  0
  6  7  1  0  0  0  0
  7  2  1  0  0  0  0
  6  8  1  1  0  0  0
  4  9  1  1  0  0  0
  7 10  1  6  0  0  0
  5 11  1  6  0  0  0
 39 13  1  0  0  0  0
 37 14  1  0  0  0  0
 31 15  1  0  0  0  0
 30  1  1  0  0  0  0
 25 38  1  0  0  0  0
 24 16  1  6  0  0  0
 23 17  1  1  0  0  0
 22 18  1  6  0  0  0
 21 20  1  1  0  0  0
 20 19  1  0  0  0  0
 26 21  1  0  0  0  0
 22 21  1  0  0  0  0
 23 22  1  0  0  0  0
 24 23  1  0  0  0  0
 25 24  1  0  0  0  0
 26 25  1  0  0  0  0
 41 27  2  0  0  0  0
 41 28  1  0  0  0  0
 33 28  2  0  0  0  0
 29 28  1  0  0  0  0
 30 29  2  0  0  0  0
 31 30  1  0  0  0  0
 32 31  2  0  0  0  0
 33 32  1  0  0  0  0
 34 33  1  0  0  0  0
 35 34  1  0  0  0  0
 40 35  2  0  0  0  0
 36 35  1  0  0  0  0
 37 36  2  0  0  0  0
 38 37  1  0  0  0  0
 39 38  2  0  0  0  0
 40 39  1  0  0  0  0
 41 40  1  0  0  0  0
  9 12  1  0  0  0  0
 25 42  1  6  0  0  0
M  END
>  <cdx:fragmentId>
5

$$$$
