98767.cdx
  Mrv1902 05222410252D          

 18 19  0  0  0  0            999 V2000
    6.2819   -6.5135    0.0000 C   0  0  0  0  0  0  0  0  0  0  0  0
    5.9805   -7.2815    0.0000 C   0  0  0  0  0  0  0  0  0  0  0  0
    5.1647   -7.4044    0.0000 C   0  0  0  0  0  0  0  0  0  0  0  0
    5.4661   -6.6365    0.0000 O   0  0  0  0  0  0  0  0  0  0  0  0
    8.7288   -9.3372    0.0000 C   0  0  0  0  0  0  0  0  0  0  0  0
    9.2137   -8.6698    0.0000 C   0  0  0  0  0  0  0  0  0  0  0  0
    8.7288   -8.0023    0.0000 C   0  0  0  0  0  0  0  0  0  0  0  0
    7.9442   -8.2573    0.0000 C   0  0  1  0  0  0  0  0  0  0  0  0
    7.2992   -7.7429    0.0000 C   0  0  0  0  0  0  0  0  0  0  0  0
    6.4949   -7.9265    0.0000 C   0  0  0  0  0  0  0  0  0  0  0  0
    6.1369   -8.6698    0.0000 C   0  0  0  0  0  0  0  0  0  0  0  0
    6.4949   -9.4131    0.0000 C   0  0  0  0  0  0  0  0  0  0  0  0
    7.2992   -9.5967    0.0000 C   0  0  0  0  0  0  0  0  0  0  0  0
    7.9442   -9.0823    0.0000 C   0  0  1  0  0  0  0  0  0  0  0  0
    7.4828  -10.4010    0.0000 C   0  0  0  0  0  0  0  0  0  0  0  0
    8.9838   -7.2177    0.0000 C   0  0  0  0  0  0  0  0  0  0  0  0
    8.0915   -7.4455    0.0000 H   0  0  0  0  0  0  0  0  0  0  0  0
    8.0915   -9.8940    0.0000 H   0  0  0  0  0  0  0  0  0  0  0  0
  1  2  1  0  0  0  0
  2  3  1  0  0  0  0
  2  4  1  0  0  0  0
  5  6  1  0  0  0  0
  6  7  2  0  0  0  0
  7  8  1  0  0  0  0
  8  9  1  0  0  0  0
  9 10  1  0  0  0  0
 10 11  1  0  0  0  0
 11 12  1  0  0  0  0
 12 13  2  0  0  0  0
 13 14  1  0  0  0  0
  5 14  1  0  0  0  0
  8 14  1  0  0  0  0
 13 15  1  0  0  0  0
  7 16  1  6  0  0  0
 10  2  1  0  0  0  0
  8 17  1  1  0  0  0
 14 18  1  1  0  0  0
M  END
>  <cdx:fragmentId>
13

$$$$
