98760.cdx
  Mrv1902 05222410232D          

 79 87  0  0  0  0            999 V2000
   10.8058  -11.4125    0.0000 C   0  0  1  0  0  0  0  0  0  0  0  0
   10.8058  -10.5875    0.0000 C   0  0  0  0  0  0  0  0  0  0  0  0
   11.5203  -10.1750    0.0000 C   0  0  0  0  0  0  0  0  0  0  0  0
   11.5203  -11.8250    0.0000 C   0  0  0  0  0  0  0  0  0  0  0  0
   12.2347  -11.4125    0.0000 C   0  0  0  0  0  0  0  0  0  0  0  0
   12.9492  -11.8250    0.0000 C   0  0  0  0  0  0  0  0  0  0  0  0
   13.6637  -11.4125    0.0000 C   0  0  0  0  0  0  0  0  0  0  0  0
   13.6637  -10.5875    0.0000 C   0  0  1  0  0  0  0  0  0  0  0  0
   14.3782  -10.1750    0.0000 C   0  0  2  0  0  0  0  0  0  0  0  0
   15.1628  -10.4299    0.0000 C   0  0  0  0  0  0  0  0  0  0  0  0
   15.6477   -9.7625    0.0000 C   0  0  2  0  0  0  0  0  0  0  0  0
   16.1326  -10.4299    0.0000 H   0  0  0  0  0  0  0  0  0  0  0  0
   16.4323   -9.5076    0.0000 O   0  0  0  0  0  0  0  0  0  0  0  0
   15.1628   -9.0951    0.0000 C   0  0  2  0  0  0  0  0  0  0  0  0
   14.8011   -8.3536    0.0000 H   0  0  0  0  0  0  0  0  0  0  0  0
   15.6477   -8.4276    0.0000 C   0  0  1  0  0  0  0  0  0  0  0  0
   16.4323   -8.6826    0.0000 C   0  0  0  0  0  0  0  0  0  0  0  0
   17.2528   -8.5963    0.0000 C   0  0  0  0  0  0  0  0  0  0  0  0
   17.7377   -9.2638    0.0000 C   0  0  0  0  0  0  0  0  0  0  0  0
   18.5582   -9.1775    0.0000 C   0  0  2  0  0  0  0  0  0  0  0  0
   19.0431   -9.8450    0.0000 C   0  0  0  0  0  0  0  0  0  0  0  0
   14.3782   -9.3500    0.0000 C   0  0  2  0  0  0  0  0  0  0  0  0
   14.3782   -8.5250    0.0000 C   0  0  0  0  0  0  0  0  0  0  0  0
   13.6637   -8.9375    0.0000 C   0  0  0  0  0  0  0  0  0  0  0  0
   12.9492   -9.3500    0.0000 C   0  0  0  0  0  0  0  0  0  0  0  0
   12.9492  -10.1750    0.0000 C   0  0  2  0  0  0  0  0  0  0  0  0
   12.2347  -10.5875    0.0000 C   0  0  1  0  0  0  0  0  0  0  0  0
   12.2347   -9.7625    0.0000 C   0  0  0  0  0  0  0  0  0  0  0  0
   12.9492  -11.0000    0.0000 H   0  0  0  0  0  0  0  0  0  0  0  0
   13.6637   -9.7625    0.0000 H   0  0  0  0  0  0  0  0  0  0  0  0
   14.3782  -11.0000    0.0000 H   0  0  0  0  0  0  0  0  0  0  0  0
   10.0913  -11.8250    0.0000 O   0  0  0  0  0  0  0  0  0  0  0  0
    8.6621  -10.1608    0.0000 C   0  0  2  0  0  0  0  0  0  0  0  0
    7.9459  -10.5704    0.0000 C   0  0  2  0  0  0  0  0  0  0  0  0
    7.9426  -11.3953    0.0000 C   0  0  1  0  0  0  0  0  0  0  0  0
    8.6553  -11.8108    0.0000 C   0  0  2  0  0  0  0  0  0  0  0  0
    9.3715  -11.4012    0.0000 C   0  0  1  0  0  0  0  0  0  0  0  0
    9.3749  -10.5762    0.0000 O   0  0  0  0  0  0  0  0  0  0  0  0
    8.6655   -9.3358    0.0000 C   0  0  0  0  0  0  0  0  0  0  0  0
    7.2264  -11.8049    0.0000 O   0  0  0  0  0  0  0  0  0  0  0  0
    7.2332  -10.1549    0.0000 O   0  0  0  0  0  0  0  0  0  0  0  0
    8.6520  -12.6358    0.0000 O   0  0  0  0  0  0  0  0  0  0  0  0
    9.3799   -8.9233    0.0000 O   0  0  0  0  0  0  0  0  0  0  0  0
   19.8636   -9.7587    0.0000 O   0  0  0  0  0  0  0  0  0  0  0  0
   20.3485  -10.4262    0.0000 C   0  0  2  0  0  0  0  0  0  0  0  0
   20.0130  -11.1798    0.0000 O   0  0  0  0  0  0  0  0  0  0  0  0
   20.4979  -11.8473    0.0000 C   0  0  1  0  0  0  0  0  0  0  0  0
   21.3184  -11.7610    0.0000 C   0  0  2  0  0  0  0  0  0  0  0  0
   21.6539  -11.0074    0.0000 C   0  0  1  0  0  0  0  0  0  0  0  0
   21.1690  -10.3399    0.0000 C   0  0  1  0  0  0  0  0  0  0  0  0
   20.1623  -12.6010    0.0000 C   0  0  0  0  0  0  0  0  0  0  0  0
   22.4744  -10.9211    0.0000 O   0  0  0  0  0  0  0  0  0  0  0  0
   21.5046   -9.5863    0.0000 O   0  0  0  0  0  0  0  0  0  0  0  0
   21.8033  -12.4285    0.0000 O   0  0  0  0  0  0  0  0  0  0  0  0
   20.6473  -13.2684    0.0000 O   0  0  0  0  0  0  0  0  0  0  0  0
   18.8938   -8.4238    0.0000 C   0  0  0  0  0  0  0  0  0  0  0  0
    7.9358  -13.0453    0.0000 C   0  0  2  0  0  0  0  0  0  0  0  0
    7.2247  -12.6270    0.0000 O   0  0  0  0  0  0  0  0  0  0  0  0
    6.5069  -13.0453    0.0000 C   0  0  2  0  0  0  0  0  0  0  0  0
    6.5069  -13.8703    0.0000 C   0  0  1  0  0  0  0  0  0  0  0  0
    7.2247  -14.2886    0.0000 C   0  0  2  0  0  0  0  0  0  0  0  0
    7.9358  -13.8703    0.0000 C   0  0  1  0  0  0  0  0  0  0  0  0
    5.7916  -14.2814    0.0000 O   0  0  0  0  0  0  0  0  0  0  0  0
    5.7916  -12.6343    0.0000 C   0  0  0  0  0  0  0  0  0  0  0  0
    7.2264  -15.1136    0.0000 O   0  0  0  0  0  0  0  0  0  0  0  0
    8.6520  -14.2799    0.0000 O   0  0  0  0  0  0  0  0  0  0  0  0
    7.2365   -9.3299    0.0000 C   0  0  2  0  0  0  0  0  0  0  0  0
    7.9501   -8.9160    0.0000 O   0  0  0  0  0  0  0  0  0  0  0  0
    7.9501   -8.0910    0.0000 C   0  0  2  0  0  0  0  0  0  0  0  0
    7.2365   -7.6800    0.0000 C   0  0  1  0  0  0  0  0  0  0  0  0
    6.5229   -8.0910    0.0000 C   0  0  2  0  0  0  0  0  0  0  0  0
    6.5229   -8.9160    0.0000 C   0  0  1  0  0  0  0  0  0  0  0  0
    7.2365   -6.8550    0.0000 O   0  0  0  0  0  0  0  0  0  0  0  0
    5.8087   -7.6781    0.0000 O   0  0  0  0  0  0  0  0  0  0  0  0
    5.8080   -9.3277    0.0000 O   0  0  0  0  0  0  0  0  0  0  0  0
    8.6644   -7.6781    0.0000 C   0  0  0  0  0  0  0  0  0  0  0  0
   16.0325   -7.7825    0.0000 O   0  0  0  0  0  0  0  0  0  0  0  0
   15.6200   -7.0680    0.0000 C   0  0  0  0  0  0  0  0  0  0  0  0
   15.2352   -7.7131    0.0000 C   0  0  0  0  0  0  0  0  0  0  0  0
  1  2  1  0  0  0  0
  2  3  1  0  0  0  0
  1  4  1  0  0  0  0
  4  5  1  0  0  0  0
  5  6  2  0  0  0  0
  6  7  1  0  0  0  0
  7  8  1  0  0  0  0
  8  9  1  0  0  0  0
  9 10  1  0  0  0  0
 10 11  1  0  0  0  0
 11 12  1  6  0  0  0
 11 13  1  0  0  0  0
 11 14  1  0  0  0  0
 14 15  1  6  0  0  0
 14 16  1  0  0  0  0
 16 17  1  0  0  0  0
 13 17  1  0  0  0  0
 17 18  1  0  0  0  0
 18 19  1  0  0  0  0
 19 20  1  0  0  0  0
 20 21  1  0  0  0  0
 14 22  1  0  0  0  0
  9 22  1  0  0  0  0
 22 23  1  1  0  0  0
 22 24  1  0  0  0  0
 24 25  1  0  0  0  0
 25 26  1  0  0  0  0
  8 26  1  0  0  0  0
 26 27  1  0  0  0  0
  3 27  1  0  0  0  0
  5 27  1  0  0  0  0
 27 28  1  1  0  0  0
 26 29  1  6  0  0  0
  8 30  1  1  0  0  0
  9 31  1  6  0  0  0
  1 32  1  1  0  0  0
 33 34  1  0  0  0  0
 34 35  1  0  0  0  0
 35 36  1  0  0  0  0
 36 37  1  0  0  0  0
 37 38  1  0  0  0  0
 38 33  1  0  0  0  0
 33 39  1  1  0  0  0
 35 40  1  1  0  0  0
 34 41  1  6  0  0  0
 36 42  1  6  0  0  0
 39 43  1  0  0  0  0
 37 32  1  1  0  0  0
 21 44  1  0  0  0  0
 45 44  1  1  0  0  0
 45 46  1  0  0  0  0
 46 47  1  0  0  0  0
 47 48  1  0  0  0  0
 48 49  1  0  0  0  0
 49 50  1  0  0  0  0
 50 45  1  0  0  0  0
 47 51  1  1  0  0  0
 49 52  1  1  0  0  0
 50 53  1  6  0  0  0
 48 54  1  6  0  0  0
 51 55  1  0  0  0  0
 20 56  1  1  0  0  0
 57 42  1  1  0  0  0
 57 58  1  0  0  0  0
 58 59  1  0  0  0  0
 59 60  1  0  0  0  0
 60 61  1  0  0  0  0
 61 62  1  0  0  0  0
 62 57  1  0  0  0  0
 60 63  1  1  0  0  0
 59 64  1  6  0  0  0
 61 65  1  6  0  0  0
 62 66  1  6  0  0  0
 67 41  1  1  0  0  0
 67 68  1  0  0  0  0
 68 69  1  0  0  0  0
 69 70  1  0  0  0  0
 70 71  1  0  0  0  0
 71 72  1  0  0  0  0
 72 67  1  0  0  0  0
 70 73  1  1  0  0  0
 71 74  1  6  0  0  0
 72 75  1  6  0  0  0
 69 76  1  6  0  0  0
 16 77  1  6  0  0  0
 77 78  1  0  0  0  0
 16 79  1  1  0  0  0
M  END
>  <cdx:fragmentId>
5

$$$$
