98764.cdx
  Mrv1902 05222410252D          

 24 26  0  0  0  0            999 V2000
   10.3360   -8.8963    0.0000 C   0  0  0  0  0  0  0  0  0  0  0  0
    9.6215   -9.3087    0.0000 C   0  0  0  0  0  0  0  0  0  0  0  0
    8.9071   -8.8963    0.0000 C   0  0  0  0  0  0  0  0  0  0  0  0
    8.9071   -8.0713    0.0000 C   0  0  0  0  0  0  0  0  0  0  0  0
    9.6215   -7.6587    0.0000 C   0  0  0  0  0  0  0  0  0  0  0  0
   10.3360   -8.0713    0.0000 C   0  0  0  0  0  0  0  0  0  0  0  0
   11.0505   -9.3087    0.0000 C   0  0  0  0  0  0  0  0  0  0  0  0
   11.7649   -8.8963    0.0000 O   0  0  0  0  0  0  0  0  0  0  0  0
    8.1926   -7.6587    0.0000 O   0  0  0  0  0  0  0  0  0  0  0  0
    7.4781   -8.0713    0.0000 C   0  0  0  0  0  0  0  0  0  0  0  0
    6.7636   -7.6587    0.0000 C   0  0  0  0  0  0  0  0  0  0  0  0
    6.0492   -8.0713    0.0000 C   0  0  0  0  0  0  0  0  0  0  0  0
    6.0492   -8.8963    0.0000 C   0  0  0  0  0  0  0  0  0  0  0  0
    6.7636   -9.3087    0.0000 C   0  0  0  0  0  0  0  0  0  0  0  0
    7.4781   -8.8963    0.0000 C   0  0  0  0  0  0  0  0  0  0  0  0
    5.3347   -9.3087    0.0000 O   0  0  0  0  0  0  0  0  0  0  0  0
    4.6202   -8.8963    0.0000 C   0  0  0  0  0  0  0  0  0  0  0  0
    4.6202   -8.0713    0.0000 C   0  0  0  0  0  0  0  0  0  0  0  0
    3.9058   -7.6587    0.0000 C   0  0  0  0  0  0  0  0  0  0  0  0
    3.1913   -8.0713    0.0000 C   0  0  0  0  0  0  0  0  0  0  0  0
    3.1913   -8.8963    0.0000 C   0  0  0  0  0  0  0  0  0  0  0  0
    3.9058   -9.3087    0.0000 C   0  0  0  0  0  0  0  0  0  0  0  0
    2.4768   -7.6587    0.0000 O   0  0  0  0  0  0  0  0  0  0  0  0
    1.7623   -8.0713    0.0000 C   0  0  0  0  0  0  0  0  0  0  0  0
  1  2  1  0  0  0  0
  2  3  2  0  0  0  0
  3  4  1  0  0  0  0
  4  5  2  0  0  0  0
  5  6  1  0  0  0  0
  1  6  2  0  0  0  0
  7  8  1  0  0  0  0
  1  7  1  0  0  0  0
  4  9  1  0  0  0  0
  9 10  1  0  0  0  0
 10 11  2  0  0  0  0
 11 12  1  0  0  0  0
 12 13  2  0  0  0  0
 13 14  1  0  0  0  0
 14 15  2  0  0  0  0
 15 10  1  0  0  0  0
 13 16  1  0  0  0  0
 16 17  1  0  0  0  0
 17 18  2  0  0  0  0
 18 19  1  0  0  0  0
 19 20  2  0  0  0  0
 20 21  1  0  0  0  0
 21 22  2  0  0  0  0
 22 17  1  0  0  0  0
 20 23  1  0  0  0  0
 23 24  1  0  0  0  0
M  END
>  <cdx:fragmentId>
5

$$$$
