98762.cdx
  Mrv1902 05222410242D          

 98109  0  0  0  0            999 V2000
   21.9418   -6.6933    0.0000 C   0  0  0  0  0  0  0  0  0  0  0  0
   18.9064   -7.1536    0.0000 C   0  0  0  0  0  0  0  0  0  0  0  0
   19.6159   -9.9773    0.0000 H   0  0  0  0  0  0  0  0  0  0  0  0
   18.2855   -7.8944    0.0000 H   0  0  0  0  0  0  0  0  0  0  0  0
   17.9173   -8.0505    0.0000 C   0  0  0  0  0  0  0  0  0  0  0  0
   17.9295  -10.5254    0.0000 H   0  0  0  0  0  0  0  0  0  0  0  0
   17.2213   -9.2984    0.0000 H   0  0  0  0  0  0  0  0  0  0  0  0
   16.5008  -10.5466    0.0000 H   0  0  0  0  0  0  0  0  0  0  0  0
   15.7925   -9.3196    0.0000 C   0  0  0  0  0  0  0  0  0  0  0  0
   13.6677  -11.4138    0.0000 O   0  0  0  0  0  0  0  0  0  0  0  0
   20.7199   -8.5019    0.0000 C   0  0  0  0  0  0  0  0  0  0  0  0
   21.3801   -8.0071    0.0000 C   0  0  0  0  0  0  0  0  0  0  0  0
   21.2817   -7.1880    0.0000 C   0  0  1  0  0  0  0  0  0  0  0  0
   20.5231   -6.8637    0.0000 C   0  0  0  0  0  0  0  0  0  0  0  0
   19.8629   -7.3585    0.0000 O   0  0  0  0  0  0  0  0  0  0  0  0
   19.9736   -9.0025    0.0000 O   0  0  0  0  0  0  0  0  0  0  0  0
   19.9613   -8.1776    0.0000 C   0  0  1  0  0  0  0  0  0  0  0  0
   19.1730   -7.9343    0.0000 C   0  0  2  0  0  0  0  0  0  0  0  0
   18.7179   -9.9436    0.0000 C   0  0  0  0  0  0  0  0  0  0  0  0
   19.1928   -9.2691    0.0000 C   0  0  1  0  0  0  0  0  0  0  0  0
   18.6980   -8.6089    0.0000 C   0  0  1  0  0  0  0  0  0  0  0  0
   17.9295   -9.7004    0.0000 C   0  0  2  0  0  0  0  0  0  0  0  0
   17.9173   -8.8755    0.0000 C   0  0  1  0  0  0  0  0  0  0  0  0
   17.1968   -8.4736    0.0000 C   0  0  0  0  0  0  0  0  0  0  0  0
   16.4885   -8.8967    0.0000 C   0  0  0  0  0  0  0  0  0  0  0  0
   16.5253  -11.3714    0.0000 C   0  0  0  0  0  0  0  0  0  0  0  0
   17.2335  -10.9483    0.0000 C   0  0  0  0  0  0  0  0  0  0  0  0
   17.2213  -10.1234    0.0000 C   0  0  2  0  0  0  0  0  0  0  0  0
   16.5008   -9.7216    0.0000 C   0  0  1  0  0  0  0  0  0  0  0  0
   14.3637  -10.1659    0.0000 C   0  0  0  0  0  0  0  0  0  0  0  0
   14.3759  -10.9908    0.0000 C   0  0  1  0  0  0  0  0  0  0  0  0
   15.0965  -11.3926    0.0000 C   0  0  0  0  0  0  0  0  0  0  0  0
   15.8047  -10.9696    0.0000 C   0  0  0  0  0  0  0  0  0  0  0  0
   15.7925  -10.1446    0.0000 C   0  0  1  0  0  0  0  0  0  0  0  0
   15.0720   -9.7428    0.0000 C   0  0  0  0  0  0  0  0  0  0  0  0
   12.9472  -11.0120    0.0000 C   0  0  2  0  0  0  0  0  0  0  0  0
   12.9287  -10.1872    0.0000 O   0  0  0  0  0  0  0  0  0  0  0  0
   12.2052   -9.7908    0.0000 C   0  0  1  0  0  0  0  0  0  0  0  0
   11.5001  -10.2191    0.0000 C   0  0  2  0  0  0  0  0  0  0  0  0
   11.5001  -11.0439    0.0000 C   0  0  1  0  0  0  0  0  0  0  0  0
   12.2052  -11.4404    0.0000 C   0  0  1  0  0  0  0  0  0  0  0  0
   12.1867   -8.9660    0.0000 C   0  0  0  0  0  0  0  0  0  0  0  0
   10.7880  -11.4605    0.0000 O   0  0  0  0  0  0  0  0  0  0  0  0
   12.2099  -12.2653    0.0000 O   0  0  0  0  0  0  0  0  0  0  0  0
   10.7811   -9.8147    0.0000 O   0  0  0  0  0  0  0  0  0  0  0  0
   11.4723   -8.5535    0.0000 O   0  0  0  0  0  0  0  0  0  0  0  0
   11.4978  -12.6819    0.0000 C   0  0  2  0  0  0  0  0  0  0  0  0
   10.7787  -12.2776    0.0000 O   0  0  0  0  0  0  0  0  0  0  0  0
   10.0689  -12.6819    0.0000 C   0  0  2  0  0  0  0  0  0  0  0  0
   10.0689  -13.5069    0.0000 C   0  0  1  0  0  0  0  0  0  0  0  0
   10.7787  -13.9112    0.0000 C   0  0  2  0  0  0  0  0  0  0  0  0
   11.4978  -13.5069    0.0000 C   0  0  1  0  0  0  0  0  0  0  0  0
    9.3557  -13.9214    0.0000 O   0  0  0  0  0  0  0  0  0  0  0  0
   10.7763  -14.7362    0.0000 O   0  0  0  0  0  0  0  0  0  0  0  0
   12.2099  -13.9234    0.0000 O   0  0  0  0  0  0  0  0  0  0  0  0
    9.3557  -12.2674    0.0000 C   0  0  0  0  0  0  0  0  0  0  0  0
    9.9561   -9.8174    0.0000 C   0  0  2  0  0  0  0  0  0  0  0  0
    9.5332   -9.1091    0.0000 O   0  0  0  0  0  0  0  0  0  0  0  0
    8.7083   -9.1211    0.0000 C   0  0  1  0  0  0  0  0  0  0  0  0
    8.2904   -9.8321    0.0000 C   0  0  2  0  0  0  0  0  0  0  0  0
    8.6973  -10.5312    0.0000 C   0  0  1  0  0  0  0  0  0  0  0  0
    9.5381  -10.5285    0.0000 C   0  0  1  0  0  0  0  0  0  0  0  0
    8.2934   -8.4080    0.0000 C   0  0  0  0  0  0  0  0  0  0  0  0
    7.4654   -9.8304    0.0000 O   0  0  0  0  0  0  0  0  0  0  0  0
    7.4684   -8.4108    0.0000 O   0  0  0  0  0  0  0  0  0  0  0  0
    9.9490  -11.2439    0.0000 O   0  0  0  0  0  0  0  0  0  0  0  0
    8.2872  -11.2470    0.0000 O   0  0  0  0  0  0  0  0  0  0  0  0
    7.4623  -11.2546    0.0000 C   0  0  2  0  0  0  0  0  0  0  0  0
    7.0365  -10.5480    0.0000 O   0  0  0  0  0  0  0  0  0  0  0  0
    6.2252  -10.5399    0.0000 C   0  0  1  0  0  0  0  0  0  0  0  0
    5.8126  -11.2541    0.0000 C   0  0  2  0  0  0  0  0  0  0  0  0
    6.2248  -11.9528    0.0000 C   0  0  1  0  0  0  0  0  0  0  0  0
    7.0496  -11.9688    0.0000 C   0  0  1  0  0  0  0  0  0  0  0  0
    5.8165   -9.8232    0.0000 C   0  0  0  0  0  0  0  0  0  0  0  0
    5.8087  -12.6652    0.0000 O   0  0  0  0  0  0  0  0  0  0  0  0
    4.9876  -11.2578    0.0000 O   0  0  0  0  0  0  0  0  0  0  0  0
    3.5493  -11.2182    0.0000 O   0  0  0  0  0  0  0  0  0  0  0  0
    7.4550  -12.6873    0.0000 O   0  0  0  0  0  0  0  0  0  0  0  0
    4.2649  -11.6557    0.0000 C   0  0  2  0  0  0  0  0  0  0  0  0
    2.8362  -11.6348    0.0000 C   0  0  0  0  0  0  0  0  0  0  0  0
    2.8241  -12.4596    0.0000 C   0  0  2  0  0  0  0  0  0  0  0  0
    3.5370  -12.8906    0.0000 C   0  0  1  0  0  0  0  0  0  0  0  0
    4.2528  -12.4805    0.0000 C   0  0  1  0  0  0  0  0  0  0  0  0
    4.9635  -12.8995    0.0000 O   0  0  0  0  0  0  0  0  0  0  0  0
    3.5272  -13.7156    0.0000 O   0  0  0  0  0  0  0  0  0  0  0  0
    2.1025  -12.8596    0.0000 O   0  0  0  0  0  0  0  0  0  0  0  0
    4.9915   -9.8190    0.0000 O   0  0  0  0  0  0  0  0  0  0  0  0
    4.5827   -9.1024    0.0000 C   0  0  2  0  0  0  0  0  0  0  0  0
    5.0098   -8.3965    0.0000 O   0  0  0  0  0  0  0  0  0  0  0  0
    4.6121   -7.6737    0.0000 C   0  0  1  0  0  0  0  0  0  0  0  0
    3.7875   -7.6821    0.0000 C   0  0  2  0  0  0  0  0  0  0  0  0
    3.3607   -8.4133    0.0000 C   0  0  1  0  0  0  0  0  0  0  0  0
    3.7581   -9.1107    0.0000 C   0  0  1  0  0  0  0  0  0  0  0  0
    5.0283   -6.9614    0.0000 C   0  0  0  0  0  0  0  0  0  0  0  0
    2.5357   -8.4090    0.0000 O   0  0  0  0  0  0  0  0  0  0  0  0
    3.3731   -6.9687    0.0000 O   0  0  0  0  0  0  0  0  0  0  0  0
    3.3472   -9.8261    0.0000 O   0  0  0  0  0  0  0  0  0  0  0  0
    4.6195   -6.2448    0.0000 O   0  0  0  0  0  0  0  0  0  0  0  0
 13  1  1  1  0  0  0
 18  2  1  6  0  0  0
 20  3  1  6  0  0  0
 21  4  1  6  0  0  0
 23  5  1  1  0  0  0
 22  6  1  6  0  0  0
 28  7  1  1  0  0  0
 29  8  1  6  0  0  0
 34  9  1  1  0  0  0
 31 10  1  1  0  0  0
 11 17  1  0  0  0  0
 12 11  1  0  0  0  0
 13 12  1  0  0  0  0
 14 13  1  0  0  0  0
 15 14  1  0  0  0  0
 17 15  1  0  0  0  0
 16 20  1  0  0  0  0
 17 16  1  6  0  0  0
 18 17  1  0  0  0  0
 21 18  1  0  0  0  0
 19 22  1  0  0  0  0
 20 19  1  0  0  0  0
 21 20  1  0  0  0  0
 23 21  1  0  0  0  0
 22 28  1  0  0  0  0
 23 22  1  0  0  0  0
 24 23  1  0  0  0  0
 25 24  1  0  0  0  0
 29 25  1  0  0  0  0
 26 33  2  0  0  0  0
 27 26  1  0  0  0  0
 28 27  1  0  0  0  0
 29 28  1  0  0  0  0
 34 29  1  0  0  0  0
 30 35  1  0  0  0  0
 31 30  1  0  0  0  0
 32 31  1  0  0  0  0
 33 32  1  0  0  0  0
 34 33  1  0  0  0  0
 35 34  1  0  0  0  0
 36 10  1  1  0  0  0
 36 37  1  0  0  0  0
 37 38  1  0  0  0  0
 38 39  1  0  0  0  0
 39 40  1  0  0  0  0
 40 41  1  0  0  0  0
 41 36  1  0  0  0  0
 38 42  1  1  0  0  0
 40 43  1  1  0  0  0
 41 44  1  6  0  0  0
 39 45  1  6  0  0  0
 42 46  1  0  0  0  0
 47 44  1  1  0  0  0
 47 48  1  0  0  0  0
 48 49  1  0  0  0  0
 49 50  1  0  0  0  0
 50 51  1  0  0  0  0
 51 52  1  0  0  0  0
 52 47  1  0  0  0  0
 50 53  1  1  0  0  0
 51 54  1  6  0  0  0
 52 55  1  6  0  0  0
 49 56  1  6  0  0  0
 57 45  1  1  0  0  0
 57 58  1  0  0  0  0
 58 59  1  0  0  0  0
 59 60  1  0  0  0  0
 60 61  1  0  0  0  0
 61 62  1  0  0  0  0
 62 57  1  0  0  0  0
 59 63  1  1  0  0  0
 60 64  1  6  0  0  0
 63 65  1  0  0  0  0
 62 66  1  6  0  0  0
 61 67  1  1  0  0  0
 68 67  1  1  0  0  0
 68 69  1  0  0  0  0
 69 70  1  0  0  0  0
 70 71  1  0  0  0  0
 71 72  1  0  0  0  0
 72 73  1  0  0  0  0
 73 68  1  0  0  0  0
 70 74  1  1  0  0  0
 72 75  1  1  0  0  0
 71 76  1  6  0  0  0
 73 78  1  6  0  0  0
 79 76  1  1  0  0  0
 79 77  1  0  0  0  0
 77 80  1  0  0  0  0
 80 81  1  0  0  0  0
 81 82  1  0  0  0  0
 82 83  1  0  0  0  0
 83 79  1  0  0  0  0
 83 84  1  6  0  0  0
 82 85  1  1  0  0  0
 81 86  1  6  0  0  0
 74 87  1  0  0  0  0
 88 87  1  1  0  0  0
 88 89  1  0  0  0  0
 89 90  1  0  0  0  0
 90 91  1  0  0  0  0
 91 92  1  0  0  0  0
 92 93  1  0  0  0  0
 93 88  1  0  0  0  0
 90 94  1  1  0  0  0
 92 95  1  1  0  0  0
 91 96  1  6  0  0  0
 93 97  1  6  0  0  0
 94 98  1  0  0  0  0
M  END
>  <cdx:fragmentId>
767

$$$$
