98765.cdx
  Mrv1902 05222410252D          

 14 13  0  0  0  0            999 V2000
    5.9746   -8.6710    0.0000 C   0  0  0  0  0  0  0  0  0  0  0  0
    6.6891   -9.0835    0.0000 C   0  0  0  0  0  0  0  0  0  0  0  0
    7.4035   -8.6710    0.0000 C   0  0  0  0  0  0  0  0  0  0  0  0
    7.4035   -9.4960    0.0000 O   0  0  0  0  0  0  0  0  0  0  0  0
    8.1180   -9.0835    0.0000 C   0  0  0  0  0  0  0  0  0  0  0  0
    8.8325   -8.6710    0.0000 C   0  0  0  0  0  0  0  0  0  0  0  0
    5.9746   -7.8460    0.0000 O   0  0  0  0  0  0  0  0  0  0  0  0
    5.2601   -9.0835    0.0000 O   0  0  0  0  0  0  0  0  0  0  0  0
    6.6891   -7.4335    0.0000 O   0  0  0  0  0  0  0  0  0  0  0  0
    8.8325   -7.8460    0.0000 O   0  0  0  0  0  0  0  0  0  0  0  0
    9.5470   -9.0835    0.0000 O   0  0  0  0  0  0  0  0  0  0  0  0
    4.5457   -8.6710    0.0000 C   0  0  0  0  0  0  0  0  0  0  0  0
    8.1180   -7.4335    0.0000 O   0  0  0  0  0  0  0  0  0  0  0  0
    7.4035   -7.8460    0.0000 C   0  0  0  0  0  0  0  0  0  0  0  0
 14  9  1  0  0  0  0
 14 13  2  0  0  0  0
  1  2  1  0  0  0  0
  2  3  1  0  0  0  0
  3  4  1  0  0  0  0
  3 14  1  0  0  0  0
  3  5  1  0  0  0  0
  5  6  1  0  0  0  0
  1  7  2  0  0  0  0
  1  8  1  0  0  0  0
  6 10  2  0  0  0  0
  6 11  1  0  0  0  0
  8 12  1  0  0  0  0
M  END
>  <cdx:fragmentId>
5

$$$$
