98766.cdx
  Mrv1902 05222410252D          

 42 46  0  0  0  0            999 V2000
    4.4507   -6.9650    0.0000 O   0  0  0  0  0  0  0  0  0  0  0  0
    8.7365   -7.7952    0.0000 O   0  0  0  0  0  0  0  0  0  0  0  0
   10.1685   -5.3219    0.0000 O   0  0  0  0  0  0  0  0  0  0  0  0
    4.4527   -5.3150    0.0000 O   0  0  0  0  0  0  0  0  0  0  0  0
    9.4505   -8.2086    0.0000 O   0  0  0  0  0  0  0  0  0  0  0  0
   10.8784   -9.0353    0.0000 O   0  0  0  0  0  0  0  0  0  0  0  0
   12.3084   -8.2121    0.0000 O   0  0  0  0  0  0  0  0  0  0  0  0
   13.0243   -6.9754    0.0000 O   0  0  0  0  0  0  0  0  0  0  0  0
   12.3104   -6.5621    0.0000 C   0  0  0  0  0  0  0  0  0  0  0  0
   11.5954   -6.9737    0.0000 C   0  0  1  0  0  0  0  0  0  0  0  0
   11.5944   -7.7987    0.0000 C   0  0  1  0  0  0  0  0  0  0  0  0
   10.8794   -8.2103    0.0000 C   0  0  2  0  0  0  0  0  0  0  0  0
   10.1655   -7.7969    0.0000 C   0  0  1  0  0  0  0  0  0  0  0  0
   10.1665   -6.9719    0.0000 C   0  0  2  0  0  0  0  0  0  0  0  0
   10.8814   -6.5603    0.0000 O   0  0  0  0  0  0  0  0  0  0  0  0
    7.3076   -7.7935    0.0000 O   0  0  0  0  0  0  0  0  0  0  0  0
    6.5946   -6.5551    0.0000 C   0  0  0  0  0  0  0  0  0  0  0  0
    5.8796   -6.9667    0.0000 C   0  0  0  0  0  0  0  0  0  0  0  0
    5.1657   -6.5534    0.0000 C   0  0  0  0  0  0  0  0  0  0  0  0
    5.1667   -5.7284    0.0000 C   0  0  0  0  0  0  0  0  0  0  0  0
    5.8817   -5.3167    0.0000 C   0  0  0  0  0  0  0  0  0  0  0  0
    6.5956   -5.7301    0.0000 C   0  0  0  0  0  0  0  0  0  0  0  0
    7.3106   -5.3185    0.0000 O   0  0  0  0  0  0  0  0  0  0  0  0
    8.0246   -5.7318    0.0000 C   0  0  0  0  0  0  0  0  0  0  0  0
    8.7395   -5.3202    0.0000 C   0  0  0  0  0  0  0  0  0  0  0  0
    9.4535   -5.7336    0.0000 C   0  0  0  0  0  0  0  0  0  0  0  0
    9.4525   -6.5586    0.0000 C   0  0  0  0  0  0  0  0  0  0  0  0
    8.7375   -6.9702    0.0000 C   0  0  0  0  0  0  0  0  0  0  0  0
    8.0236   -6.5568    0.0000 C   0  0  0  0  0  0  0  0  0  0  0  0
    7.3086   -6.9685    0.0000 C   0  0  0  0  0  0  0  0  0  0  0  0
   10.1675   -6.1469    0.0000 H   0  0  0  0  0  0  0  0  0  0  0  0
    4.4537   -4.4900    0.0000 C   0  0  2  0  0  0  0  0  0  0  0  0
    5.1692   -4.0792    0.0000 O   0  0  0  0  0  0  0  0  0  0  0  0
    5.1681   -3.2525    0.0000 C   0  0  1  0  0  0  0  0  0  0  0  0
    4.4536   -2.8400    0.0000 C   0  0  2  0  0  0  0  0  0  0  0  0
    3.7372   -3.2525    0.0000 C   0  0  1  0  0  0  0  0  0  0  0  0
    3.7392   -4.0775    0.0000 C   0  0  1  0  0  0  0  0  0  0  0  0
    5.8823   -2.8395    0.0000 C   0  0  0  0  0  0  0  0  0  0  0  0
    3.0224   -2.8405    0.0000 O   0  0  0  0  0  0  0  0  0  0  0  0
    4.4541   -2.0150    0.0000 O   0  0  0  0  0  0  0  0  0  0  0  0
    5.8818   -2.0145    0.0000 O   0  0  0  0  0  0  0  0  0  0  0  0
    3.0253   -4.4909    0.0000 O   0  0  0  0  0  0  0  0  0  0  0  0
 28  2  1  0  0  0  0
 26  3  1  0  0  0  0
 20  4  1  0  0  0  0
 19  1  1  0  0  0  0
 14 27  1  0  0  0  0
 13  5  1  6  0  0  0
 12  6  1  1  0  0  0
 11  7  1  6  0  0  0
 10  9  1  1  0  0  0
  9  8  1  0  0  0  0
 15 10  1  0  0  0  0
 11 10  1  0  0  0  0
 12 11  1  0  0  0  0
 13 12  1  0  0  0  0
 14 13  1  0  0  0  0
 15 14  1  0  0  0  0
 30 16  2  0  0  0  0
 30 17  1  0  0  0  0
 22 17  2  0  0  0  0
 18 17  1  0  0  0  0
 19 18  2  0  0  0  0
 20 19  1  0  0  0  0
 21 20  2  0  0  0  0
 22 21  1  0  0  0  0
 23 22  1  0  0  0  0
 24 23  1  0  0  0  0
 29 24  2  0  0  0  0
 25 24  1  0  0  0  0
 26 25  2  0  0  0  0
 27 26  1  0  0  0  0
 28 27  2  0  0  0  0
 29 28  1  0  0  0  0
 30 29  1  0  0  0  0
 14 31  1  6  0  0  0
 32  4  1  1  0  0  0
 32 33  1  0  0  0  0
 33 34  1  0  0  0  0
 34 35  1  0  0  0  0
 35 36  1  0  0  0  0
 36 37  1  0  0  0  0
 37 32  1  0  0  0  0
 34 38  1  1  0  0  0
 36 39  1  1  0  0  0
 35 40  1  6  0  0  0
 38 41  1  0  0  0  0
 37 42  1  6  0  0  0
M  END
>  <cdx:fragmentId>
5

$$$$
