98776.cdx
  Mrv1902 05222410242D          

 55 60  0  0  0  0            999 V2000
   10.8058  -11.4125    0.0000 C   0  0  1  0  0  0  0  0  0  0  0  0
   10.8058  -10.5875    0.0000 C   0  0  0  0  0  0  0  0  0  0  0  0
   11.5203  -10.1750    0.0000 C   0  0  2  0  0  0  0  0  0  0  0  0
   11.5203  -11.8250    0.0000 C   0  0  0  0  0  0  0  0  0  0  0  0
   12.2347  -11.4125    0.0000 C   0  0  0  0  0  0  0  0  0  0  0  0
   12.9492  -11.8250    0.0000 C   0  0  0  0  0  0  0  0  0  0  0  0
   13.6637  -11.4125    0.0000 C   0  0  0  0  0  0  0  0  0  0  0  0
   13.6637  -10.5875    0.0000 C   0  0  1  0  0  0  0  0  0  0  0  0
   14.3782  -10.1750    0.0000 C   0  0  2  0  0  0  0  0  0  0  0  0
   15.1628  -10.4299    0.0000 C   0  0  0  0  0  0  0  0  0  0  0  0
   15.6477   -9.7625    0.0000 C   0  0  1  0  0  0  0  0  0  0  0  0
   15.1628   -9.0951    0.0000 C   0  0  0  0  0  0  0  0  0  0  0  0
   14.3782   -9.3500    0.0000 C   0  0  2  0  0  0  0  0  0  0  0  0
   14.3782   -8.5250    0.0000 C   0  0  0  0  0  0  0  0  0  0  0  0
   13.6637   -8.9375    0.0000 C   0  0  0  0  0  0  0  0  0  0  0  0
   12.9492   -9.3500    0.0000 C   0  0  0  0  0  0  0  0  0  0  0  0
   12.9492  -10.1750    0.0000 C   0  0  2  0  0  0  0  0  0  0  0  0
   12.2347  -10.5875    0.0000 C   0  0  1  0  0  0  0  0  0  0  0  0
   12.2347   -9.7625    0.0000 C   0  0  0  0  0  0  0  0  0  0  0  0
   12.9492  -11.0000    0.0000 H   0  0  0  0  0  0  0  0  0  0  0  0
   13.6637   -9.7625    0.0000 H   0  0  0  0  0  0  0  0  0  0  0  0
   14.3782  -11.0000    0.0000 H   0  0  0  0  0  0  0  0  0  0  0  0
   10.0913  -11.8250    0.0000 O   0  0  0  0  0  0  0  0  0  0  0  0
   11.5203   -9.3500    0.0000 O   0  0  0  0  0  0  0  0  0  0  0  0
   10.8058   -8.9375    0.0000 C   0  0  2  0  0  0  0  0  0  0  0  0
   10.8058   -8.1125    0.0000 O   0  0  0  0  0  0  0  0  0  0  0  0
   10.0913   -7.7000    0.0000 C   0  0  2  0  0  0  0  0  0  0  0  0
    9.3769   -8.1125    0.0000 C   0  0  1  0  0  0  0  0  0  0  0  0
    9.3769   -8.9375    0.0000 C   0  0  2  0  0  0  0  0  0  0  0  0
   10.0913   -9.3500    0.0000 C   0  0  1  0  0  0  0  0  0  0  0  0
    8.6624   -7.7000    0.0000 O   0  0  0  0  0  0  0  0  0  0  0  0
   10.0913   -6.8750    0.0000 C   0  0  0  0  0  0  0  0  0  0  0  0
    8.6624   -9.3500    0.0000 O   0  0  0  0  0  0  0  0  0  0  0  0
   10.0913  -10.1750    0.0000 O   0  0  0  0  0  0  0  0  0  0  0  0
   15.4177   -8.3104    0.0000 C   0  0  2  0  0  0  0  0  0  0  0  0
   14.8657   -7.6973    0.0000 C   0  0  0  0  0  0  0  0  0  0  0  0
   16.2247   -8.1389    0.0000 C   0  0  1  0  0  0  0  0  0  0  0  0
   16.7767   -8.7520    0.0000 O   0  0  0  0  0  0  0  0  0  0  0  0
   16.4796   -7.3543    0.0000 C   0  0  0  0  0  0  0  0  0  0  0  0
   17.2866   -7.1828    0.0000 C   0  0  0  0  0  0  0  0  0  0  0  0
   17.5415   -6.3981    0.0000 C   0  0  0  0  0  0  0  0  0  0  0  0
   16.9895   -5.7850    0.0000 C   0  0  0  0  0  0  0  0  0  0  0  0
   18.3485   -6.2266    0.0000 C   0  0  0  0  0  0  0  0  0  0  0  0
   16.4727   -9.7625    0.0000 O   0  0  0  0  0  0  0  0  0  0  0  0
   16.8852  -10.4770    0.0000 C   0  0  2  0  0  0  0  0  0  0  0  0
   16.4727  -11.1914    0.0000 O   0  0  0  0  0  0  0  0  0  0  0  0
   16.8852  -11.9059    0.0000 C   0  0  1  0  0  0  0  0  0  0  0  0
   17.7102  -11.9059    0.0000 C   0  0  2  0  0  0  0  0  0  0  0  0
   18.1227  -11.1914    0.0000 C   0  0  1  0  0  0  0  0  0  0  0  0
   17.7102  -10.4770    0.0000 C   0  0  1  0  0  0  0  0  0  0  0  0
   16.4727  -12.6204    0.0000 C   0  0  0  0  0  0  0  0  0  0  0  0
   18.9477  -11.1914    0.0000 O   0  0  0  0  0  0  0  0  0  0  0  0
   18.1227   -9.7625    0.0000 O   0  0  0  0  0  0  0  0  0  0  0  0
   18.1227  -12.6204    0.0000 O   0  0  0  0  0  0  0  0  0  0  0  0
   16.8852  -13.3349    0.0000 O   0  0  0  0  0  0  0  0  0  0  0  0
  1  2  1  0  0  0  0
  2  3  1  0  0  0  0
  1  4  1  0  0  0  0
  4  5  1  0  0  0  0
  5  6  2  0  0  0  0
  6  7  1  0  0  0  0
  7  8  1  0  0  0  0
  8  9  1  0  0  0  0
  9 10  1  0  0  0  0
 10 11  1  0  0  0  0
 11 12  1  0  0  0  0
 12 13  1  0  0  0  0
  9 13  1  0  0  0  0
 13 14  1  1  0  0  0
 13 15  1  0  0  0  0
 15 16  1  0  0  0  0
 16 17  1  0  0  0  0
  8 17  1  0  0  0  0
 17 18  1  0  0  0  0
  3 18  1  0  0  0  0
  5 18  1  0  0  0  0
 18 19  1  1  0  0  0
 17 20  1  6  0  0  0
  8 21  1  1  0  0  0
  9 22  1  6  0  0  0
  1 23  1  1  0  0  0
  3 24  1  1  0  0  0
 25 24  1  1  0  0  0
 25 26  1  0  0  0  0
 26 27  1  0  0  0  0
 27 28  1  0  0  0  0
 28 29  1  0  0  0  0
 29 30  1  0  0  0  0
 30 25  1  0  0  0  0
 28 31  1  1  0  0  0
 27 32  1  6  0  0  0
 29 33  1  6  0  0  0
 30 34  1  6  0  0  0
 12 35  1  0  0  0  0
 35 36  1  6  0  0  0
 35 37  1  0  0  0  0
 37 38  1  6  0  0  0
 37 39  1  0  0  0  0
 39 40  1  0  0  0  0
 40 41  1  0  0  0  0
 41 42  1  0  0  0  0
 41 43  1  0  0  0  0
 11 44  1  1  0  0  0
 45 44  1  1  0  0  0
 45 46  1  0  0  0  0
 46 47  1  0  0  0  0
 47 48  1  0  0  0  0
 48 49  1  0  0  0  0
 49 50  1  0  0  0  0
 50 45  1  0  0  0  0
 47 51  1  1  0  0  0
 49 52  1  1  0  0  0
 50 53  1  6  0  0  0
 48 54  1  6  0  0  0
 51 55  1  0  0  0  0
M  END
>  <cdx:fragmentId>
5

$$$$
