98771.cdx
  Mrv1902 05222410252D          

 71 78  0  0  0  0            999 V2000
   10.8058  -11.4125    0.0000 C   0  0  1  0  0  0  0  0  0  0  0  0
   10.8058  -10.5875    0.0000 C   0  0  0  0  0  0  0  0  0  0  0  0
   11.5203  -10.1750    0.0000 C   0  0  0  0  0  0  0  0  0  0  0  0
   11.5203  -11.8250    0.0000 C   0  0  0  0  0  0  0  0  0  0  0  0
   12.2347  -11.4125    0.0000 C   0  0  1  0  0  0  0  0  0  0  0  0
   12.9492  -11.8250    0.0000 C   0  0  0  0  0  0  0  0  0  0  0  0
   13.6637  -11.4125    0.0000 C   0  0  0  0  0  0  0  0  0  0  0  0
   13.6637  -10.5875    0.0000 C   0  0  1  0  0  0  0  0  0  0  0  0
   14.3782  -10.1750    0.0000 C   0  0  2  0  0  0  0  0  0  0  0  0
   15.1628  -10.4299    0.0000 C   0  0  0  0  0  0  0  0  0  0  0  0
   15.6477   -9.7625    0.0000 C   0  0  2  0  0  0  0  0  0  0  0  0
   16.1326  -10.4299    0.0000 H   0  0  0  0  0  0  0  0  0  0  0  0
   16.4323   -9.5076    0.0000 O   0  0  0  0  0  0  0  0  0  0  0  0
   15.1628   -9.0951    0.0000 C   0  0  2  0  0  0  0  0  0  0  0  0
   14.8011   -8.3536    0.0000 H   0  0  0  0  0  0  0  0  0  0  0  0
   15.6477   -8.4276    0.0000 C   0  0  2  0  0  0  0  0  0  0  0  0
   16.4323   -8.6826    0.0000 C   0  0  0  0  0  0  0  0  0  0  0  0
   15.2352   -7.7131    0.0000 C   0  0  0  0  0  0  0  0  0  0  0  0
   14.3782   -9.3500    0.0000 C   0  0  2  0  0  0  0  0  0  0  0  0
   14.3782   -8.5250    0.0000 C   0  0  0  0  0  0  0  0  0  0  0  0
   13.6637   -8.9375    0.0000 C   0  0  0  0  0  0  0  0  0  0  0  0
   12.9492   -9.3500    0.0000 C   0  0  0  0  0  0  0  0  0  0  0  0
   12.9492  -10.1750    0.0000 C   0  0  2  0  0  0  0  0  0  0  0  0
   12.2347  -10.5875    0.0000 C   0  0  1  0  0  0  0  0  0  0  0  0
   12.2347   -9.7625    0.0000 C   0  0  0  0  0  0  0  0  0  0  0  0
   12.9492  -11.0000    0.0000 H   0  0  0  0  0  0  0  0  0  0  0  0
   13.6637   -9.7625    0.0000 H   0  0  0  0  0  0  0  0  0  0  0  0
   14.3782  -11.0000    0.0000 H   0  0  0  0  0  0  0  0  0  0  0  0
   10.0913  -11.8250    0.0000 O   0  0  0  0  0  0  0  0  0  0  0  0
   12.2347  -12.2375    0.0000 H   0  0  0  0  0  0  0  0  0  0  0  0
    8.6621  -10.1608    0.0000 C   0  0  2  0  0  0  0  0  0  0  0  0
    7.9459  -10.5704    0.0000 C   0  0  1  0  0  0  0  0  0  0  0  0
    7.9426  -11.3953    0.0000 C   0  0  1  0  0  0  0  0  0  0  0  0
    8.6553  -11.8108    0.0000 C   0  0  2  0  0  0  0  0  0  0  0  0
    9.3715  -11.4012    0.0000 C   0  0  1  0  0  0  0  0  0  0  0  0
    9.3749  -10.5762    0.0000 O   0  0  0  0  0  0  0  0  0  0  0  0
    8.6655   -9.3358    0.0000 C   0  0  0  0  0  0  0  0  0  0  0  0
    7.2264  -11.8049    0.0000 O   0  0  0  0  0  0  0  0  0  0  0  0
    7.2332  -10.1549    0.0000 O   0  0  0  0  0  0  0  0  0  0  0  0
    8.6520  -12.6358    0.0000 O   0  0  0  0  0  0  0  0  0  0  0  0
    7.9527   -8.9204    0.0000 O   0  0  0  0  0  0  0  0  0  0  0  0
    7.9358  -13.0453    0.0000 C   0  0  2  0  0  0  0  0  0  0  0  0
    7.2247  -12.6270    0.0000 O   0  0  0  0  0  0  0  0  0  0  0  0
    6.5069  -13.0453    0.0000 C   0  0  1  0  0  0  0  0  0  0  0  0
    6.5069  -13.8703    0.0000 C   0  0  2  0  0  0  0  0  0  0  0  0
    7.2247  -14.2886    0.0000 C   0  0  1  0  0  0  0  0  0  0  0  0
    7.9358  -13.8703    0.0000 C   0  0  1  0  0  0  0  0  0  0  0  0
    5.7916  -12.6343    0.0000 C   0  0  0  0  0  0  0  0  0  0  0  0
    7.2264  -15.1136    0.0000 O   0  0  0  0  0  0  0  0  0  0  0  0
    5.7916  -14.2814    0.0000 O   0  0  0  0  0  0  0  0  0  0  0  0
    8.6520  -14.2799    0.0000 O   0  0  0  0  0  0  0  0  0  0  0  0
    5.0780  -13.0482    0.0000 O   0  0  0  0  0  0  0  0  0  0  0  0
   17.0998   -8.1976    0.0000 C   0  0  0  0  0  0  0  0  0  0  0  0
   17.8534   -8.5332    0.0000 C   0  0  0  0  0  0  0  0  0  0  0  0
   18.5209   -8.0483    0.0000 C   0  0  2  0  0  0  0  0  0  0  0  0
   19.2745   -8.3838    0.0000 C   0  0  0  0  0  0  0  0  0  0  0  0
   18.4346   -7.2278    0.0000 C   0  0  0  0  0  0  0  0  0  0  0  0
   19.9420   -7.8989    0.0000 O   0  0  0  0  0  0  0  0  0  0  0  0
   20.6957   -8.2345    0.0000 C   0  0  2  0  0  0  0  0  0  0  0  0
   20.7819   -9.0549    0.0000 O   0  0  0  0  0  0  0  0  0  0  0  0
   21.5356   -9.3905    0.0000 C   0  0  1  0  0  0  0  0  0  0  0  0
   22.2030   -8.9056    0.0000 C   0  0  2  0  0  0  0  0  0  0  0  0
   22.1168   -8.0851    0.0000 C   0  0  1  0  0  0  0  0  0  0  0  0
   21.3631   -7.7495    0.0000 C   0  0  1  0  0  0  0  0  0  0  0  0
   21.6218  -10.2110    0.0000 C   0  0  0  0  0  0  0  0  0  0  0  0
   22.7842   -7.6002    0.0000 O   0  0  0  0  0  0  0  0  0  0  0  0
   21.2769   -6.9291    0.0000 O   0  0  0  0  0  0  0  0  0  0  0  0
   22.9567   -9.2411    0.0000 O   0  0  0  0  0  0  0  0  0  0  0  0
   22.3755  -10.5465    0.0000 O   0  0  0  0  0  0  0  0  0  0  0  0
   16.0602   -7.7131    0.0000 O   0  0  0  0  0  0  0  0  0  0  0  0
   15.6477   -6.9987    0.0000 C   0  0  0  0  0  0  0  0  0  0  0  0
  1  2  1  0  0  0  0
  2  3  1  0  0  0  0
  1  4  1  0  0  0  0
  4  5  1  0  0  0  0
  5  6  1  0  0  0  0
  6  7  1  0  0  0  0
  7  8  1  0  0  0  0
  8  9  1  0  0  0  0
  9 10  1  0  0  0  0
 10 11  1  0  0  0  0
 11 12  1  6  0  0  0
 11 13  1  0  0  0  0
 11 14  1  0  0  0  0
 14 15  1  6  0  0  0
 14 16  1  0  0  0  0
 16 17  1  0  0  0  0
 13 17  1  0  0  0  0
 16 18  1  1  0  0  0
 14 19  1  0  0  0  0
  9 19  1  0  0  0  0
 19 20  1  1  0  0  0
 19 21  1  0  0  0  0
 21 22  1  0  0  0  0
 22 23  1  0  0  0  0
  8 23  1  0  0  0  0
 23 24  1  0  0  0  0
  3 24  1  0  0  0  0
  5 24  1  0  0  0  0
 24 25  1  1  0  0  0
 23 26  1  6  0  0  0
  8 27  1  1  0  0  0
  9 28  1  6  0  0  0
  1 29  1  1  0  0  0
  5 30  1  1  0  0  0
 31 32  1  0  0  0  0
 32 33  1  0  0  0  0
 33 34  1  0  0  0  0
 34 35  1  0  0  0  0
 35 36  1  0  0  0  0
 36 31  1  0  0  0  0
 31 37  1  1  0  0  0
 33 38  1  1  0  0  0
 32 39  1  1  0  0  0
 34 40  1  6  0  0  0
 37 41  1  0  0  0  0
 35 29  1  1  0  0  0
 42 40  1  1  0  0  0
 42 43  1  0  0  0  0
 43 44  1  0  0  0  0
 44 45  1  0  0  0  0
 45 46  1  0  0  0  0
 46 47  1  0  0  0  0
 47 42  1  0  0  0  0
 44 48  1  1  0  0  0
 46 49  1  1  0  0  0
 45 50  1  6  0  0  0
 47 51  1  6  0  0  0
 48 52  1  0  0  0  0
 17 53  2  0  0  0  0
 53 54  1  0  0  0  0
 54 55  1  0  0  0  0
 55 56  1  0  0  0  0
 55 57  1  1  0  0  0
 56 58  1  0  0  0  0
 59 58  1  1  0  0  0
 59 60  1  0  0  0  0
 60 61  1  0  0  0  0
 61 62  1  0  0  0  0
 62 63  1  0  0  0  0
 63 64  1  0  0  0  0
 64 59  1  0  0  0  0
 61 65  1  1  0  0  0
 63 66  1  1  0  0  0
 64 67  1  6  0  0  0
 62 68  1  6  0  0  0
 65 69  1  0  0  0  0
 16 70  1  6  0  0  0
 70 71  1  0  0  0  0
M  END
>  <cdx:fragmentId>
5

$$$$
