987880.cdx
  Mrv1902 05222410232D          

 78 86  0  0  0  0            999 V2000
   10.8673   -7.4937    0.0000 C   0  0  0  0  0  0  0  0  0  0  0  0
   11.5818   -7.0812    0.0000 C   0  0  2  0  0  0  0  0  0  0  0  0
   12.2963   -7.4937    0.0000 C   0  0  0  0  0  0  0  0  0  0  0  0
   12.2963   -8.3187    0.0000 C   0  0  0  0  0  0  0  0  0  0  0  0
   11.5818   -8.7312    0.0000 C   0  0  2  0  0  0  0  0  0  0  0  0
   11.5818   -9.5562    0.0000 C   0  0  1  0  0  0  0  0  0  0  0  0
   10.8673   -9.9687    0.0000 C   0  0  0  0  0  0  0  0  0  0  0  0
   10.1528   -9.5562    0.0000 C   0  0  1  0  0  0  0  0  0  0  0  0
    9.4384   -9.9687    0.0000 C   0  0  2  0  0  0  0  0  0  0  0  0
    9.4384  -10.7937    0.0000 C   0  0  0  0  0  0  0  0  0  0  0  0
    8.7239  -11.2062    0.0000 C   0  0  0  0  0  0  0  0  0  0  0  0
    8.0094  -10.7937    0.0000 C   0  0  1  0  0  0  0  0  0  0  0  0
    7.2950  -11.2062    0.0000 C   0  0  0  0  0  0  0  0  0  0  0  0
    6.5805  -10.7937    0.0000 C   0  0  2  0  0  0  0  0  0  0  0  0
    6.5805   -9.9687    0.0000 C   0  0  0  0  0  0  0  0  0  0  0  0
    7.2950   -9.5562    0.0000 C   0  0  0  0  0  0  0  0  0  0  0  0
    8.0094   -9.9687    0.0000 C   0  0  2  0  0  0  0  0  0  0  0  0
    8.7239   -9.5562    0.0000 C   0  0  1  0  0  0  0  0  0  0  0  0
    8.7239   -8.7312    0.0000 C   0  0  0  0  0  0  0  0  0  0  0  0
    9.4384   -8.3187    0.0000 C   0  0  0  0  0  0  0  0  0  0  0  0
   10.1528   -8.7312    0.0000 C   0  0  0  0  0  0  0  0  0  0  0  0
   10.8673   -8.3187    0.0000 C   0  0  2  0  0  0  0  0  0  0  0  0
   11.5818   -6.2562    0.0000 C   0  0  0  0  0  0  0  0  0  0  0  0
   10.8673   -5.8437    0.0000 O   0  0  0  0  0  0  0  0  0  0  0  0
   12.2963   -5.8437    0.0000 O   0  0  0  0  0  0  0  0  0  0  0  0
    7.7075  -11.9207    0.0000 C   0  0  0  0  0  0  0  0  0  0  0  0
    6.8825  -11.9207    0.0000 C   0  0  0  0  0  0  0  0  0  0  0  0
   12.2963   -6.6687    0.0000 C   0  0  0  0  0  0  0  0  0  0  0  0
   12.2963   -9.1437    0.0000 C   0  0  0  0  0  0  0  0  0  0  0  0
   13.0107   -8.7312    0.0000 O   0  0  0  0  0  0  0  0  0  0  0  0
   12.2963   -9.9687    0.0000 O   0  0  0  0  0  0  0  0  0  0  0  0
    8.0094  -11.6187    0.0000 H   0  0  0  0  0  0  0  0  0  0  0  0
   10.8673   -9.1437    0.0000 H   0  0  0  0  0  0  0  0  0  0  0  0
    4.4724   -7.0692    0.0000 O   0  0  0  0  0  0  0  0  0  0  0  0
    3.0506   -6.2320    0.0000 O   0  0  0  0  0  0  0  0  0  0  0  0
    1.6217   -6.2197    0.0000 O   0  0  0  0  0  0  0  0  0  0  0  0
    1.6146   -7.0447    0.0000 C   0  0  0  0  0  0  0  0  0  0  0  0
    5.8801   -9.5563    0.0000 O   0  0  0  0  0  0  0  0  0  0  0  0
    7.3161   -8.7435    0.0000 O   0  0  0  0  0  0  0  0  0  0  0  0
    7.3302   -7.0936    0.0000 O   0  0  0  0  0  0  0  0  0  0  0  0
    5.9013   -7.0814    0.0000 C   0  0  0  0  0  0  0  0  0  0  0  0
    6.6122   -7.5000    0.0000 C   0  0  2  0  0  0  0  0  0  0  0  0
    6.6052   -8.3249    0.0000 C   0  0  1  0  0  0  0  0  0  0  0  0
    5.8872   -8.7313    0.0000 C   0  0  2  0  0  0  0  0  0  0  0  0
    5.1763   -8.3127    0.0000 C   0  0  1  0  0  0  0  0  0  0  0  0
    5.1833   -7.4877    0.0000 O   0  0  0  0  0  0  0  0  0  0  0  0
    4.4583   -8.7191    0.0000 O   0  0  0  0  0  0  0  0  0  0  0  0
    2.3256   -7.4633    0.0000 C   0  0  2  0  0  0  0  0  0  0  0  0
    3.0435   -7.0569    0.0000 C   0  0  2  0  0  0  0  0  0  0  0  0
    3.7544   -7.4755    0.0000 C   0  0  1  0  0  0  0  0  0  0  0  0
    3.7474   -8.3005    0.0000 C   0  0  2  0  0  0  0  0  0  0  0  0
    3.0294   -8.7069    0.0000 C   0  0  1  0  0  0  0  0  0  0  0  0
    2.3185   -8.2883    0.0000 O   0  0  0  0  0  0  0  0  0  0  0  0
    3.0224   -9.5318    0.0000 O   0  0  0  0  0  0  0  0  0  0  0  0
    3.0082  -11.1818    0.0000 O   0  0  0  0  0  0  0  0  0  0  0  0
    4.4159  -13.6689    0.0000 O   0  0  0  0  0  0  0  0  0  0  0  0
    2.9800  -14.4817    0.0000 O   0  0  0  0  0  0  0  0  0  0  0  0
    1.5582  -13.6445    0.0000 O   0  0  0  0  0  0  0  0  0  0  0  0
    1.5793  -11.1695    0.0000 O   0  0  0  0  0  0  0  0  0  0  0  0
    1.5723  -11.9945    0.0000 C   0  0  0  0  0  0  0  0  0  0  0  0
    2.2832  -12.4131    0.0000 C   0  0  2  0  0  0  0  0  0  0  0  0
    2.2761  -13.2381    0.0000 C   0  0  2  0  0  0  0  0  0  0  0  0
    2.9871  -13.6567    0.0000 C   0  0  1  0  0  0  0  0  0  0  0  0
    3.7050  -13.2503    0.0000 C   0  0  2  0  0  0  0  0  0  0  0  0
    3.7121  -12.4253    0.0000 C   0  0  1  0  0  0  0  0  0  0  0  0
    3.0012  -12.0067    0.0000 O   0  0  0  0  0  0  0  0  0  0  0  0
    4.4301  -12.0190    0.0000 O   0  0  0  0  0  0  0  0  0  0  0  0
    4.4512   -9.5441    0.0000 C   0  0  0  0  0  0  0  0  0  0  0  0
    3.7333   -9.9504    0.0000 C   0  0  1  0  0  0  0  0  0  0  0  0
    3.7262  -10.7754    0.0000 C   0  0  1  0  0  0  0  0  0  0  0  0
    4.4371  -11.1940    0.0000 C   0  0  2  0  0  0  0  0  0  0  0  0
    5.1551  -10.7876    0.0000 C   0  0  1  0  0  0  0  0  0  0  0  0
    5.1622   -9.9627    0.0000 O   0  0  0  0  0  0  0  0  0  0  0  0
    5.8660  -11.2062    0.0000 O   0  0  0  0  0  0  0  0  0  0  0  0
    8.0094   -9.1437    0.0000 C   0  0  0  0  0  0  0  0  0  0  0  0
   10.0217  -10.5521    0.0000 C   0  0  0  0  0  0  0  0  0  0  0  0
   10.3664  -10.3531    0.0000 C   0  0  0  0  0  0  0  0  0  0  0  0
    8.1405   -8.9729    0.0000 H   0  0  0  0  0  0  0  0  0  0  0  0
 72 74  1  1  0  0  0
 69 54  1  1  0  0  0
 52 54  1  6  0  0  0
 50 34  1  6  0  0  0
 49 35  1  1  0  0  0
 48 37  1  6  0  0  0
 37 36  1  0  0  0  0
 51 47  1  1  0  0  0
 45 47  1  6  0  0  0
 44 38  1  1  0  0  0
 43 39  1  6  0  0  0
 42 40  1  1  0  0  0
 46 41  1  0  0  0  0
 42 41  1  0  0  0  0
 43 42  1  0  0  0  0
 44 43  1  0  0  0  0
 45 44  1  0  0  0  0
 46 45  1  0  0  0  0
 53 48  1  0  0  0  0
 49 48  1  0  0  0  0
 50 49  1  0  0  0  0
 51 50  1  0  0  0  0
 52 51  1  0  0  0  0
 53 52  1  0  0  0  0
 70 55  1  1  0  0  0
 71 67  1  6  0  0  0
 65 67  1  1  0  0  0
 64 56  1  6  0  0  0
 63 57  1  1  0  0  0
 62 58  1  6  0  0  0
 61 60  1  1  0  0  0
 60 59  1  0  0  0  0
 66 61  1  0  0  0  0
 62 61  1  0  0  0  0
 63 62  1  0  0  0  0
 64 63  1  0  0  0  0
 65 64  1  0  0  0  0
 66 65  1  0  0  0  0
 73 68  1  0  0  0  0
 69 68  1  0  0  0  0
 70 69  1  0  0  0  0
  1  2  1  0  0  0  0
  2  3  1  0  0  0  0
  3  4  1  0  0  0  0
  4  5  1  0  0  0  0
  5  6  1  0  0  0  0
  6  7  1  0  0  0  0
  7  8  1  0  0  0  0
  8  9  1  0  0  0  0
  9 10  1  0  0  0  0
 10 11  1  0  0  0  0
 11 12  1  0  0  0  0
 12 13  1  0  0  0  0
 13 14  1  0  0  0  0
 14 15  1  0  0  0  0
 15 16  1  0  0  0  0
 16 17  1  0  0  0  0
 12 17  1  0  0  0  0
 17 18  1  0  0  0  0
  9 18  1  0  0  0  0
 18 19  1  0  0  0  0
 19 20  1  0  0  0  0
 20 21  2  0  0  0  0
  8 21  1  0  0  0  0
 21 22  1  0  0  0  0
  5 22  1  0  0  0  0
  1 22  1  0  0  0  0
 23 24  2  0  0  0  0
 23 25  1  0  0  0  0
  2 23  1  0  0  0  0
 13 26  1  0  0  0  0
 13 27  1  0  0  0  0
  2 28  1  6  0  0  0
 29 30  1  0  0  0  0
  5 29  1  1  0  0  0
  6 31  1  6  0  0  0
 71 70  1  0  0  0  0
 72 71  1  0  0  0  0
 73 72  1  0  0  0  0
 14 74  1  1  0  0  0
 12 32  1  6  0  0  0
 22 33  1  1  0  0  0
 17 75  1  1  0  0  0
  9 76  1  1  0  0  0
  8 77  1  6  0  0  0
 18 78  1  6  0  0  0
M  END
>  <cdx:fragmentId>
227032

$$$$
