98796.cdx
  Mrv1902 05222410202D          

104114  0  0  0  0            999 V2000
   12.9508  -11.8250    0.0000 C   0  0  1  0  0  0  0  0  0  0  0  0
   12.9508  -11.0000    0.0000 C   0  0  0  0  0  0  0  0  0  0  0  0
   13.6653  -10.5875    0.0000 C   0  0  0  0  0  0  0  0  0  0  0  0
   13.6653  -12.2375    0.0000 C   0  0  0  0  0  0  0  0  0  0  0  0
   14.3797  -11.8250    0.0000 C   0  0  2  0  0  0  0  0  0  0  0  0
   15.0942  -12.2375    0.0000 C   0  0  0  0  0  0  0  0  0  0  0  0
   15.8087  -11.8250    0.0000 C   0  0  0  0  0  0  0  0  0  0  0  0
   15.8087  -11.0000    0.0000 C   0  0  1  0  0  0  0  0  0  0  0  0
   16.5232  -10.5875    0.0000 C   0  0  2  0  0  0  0  0  0  0  0  0
   17.3078  -10.8424    0.0000 C   0  0  0  0  0  0  0  0  0  0  0  0
   17.7927  -10.1750    0.0000 C   0  0  2  0  0  0  0  0  0  0  0  0
   18.2776  -10.8424    0.0000 H   0  0  0  0  0  0  0  0  0  0  0  0
   18.5773   -9.9201    0.0000 O   0  0  0  0  0  0  0  0  0  0  0  0
   17.3078   -9.5076    0.0000 C   0  0  2  0  0  0  0  0  0  0  0  0
   16.9461   -8.7661    0.0000 H   0  0  0  0  0  0  0  0  0  0  0  0
   17.7927   -8.8401    0.0000 C   0  0  1  0  0  0  0  0  0  0  0  0
   18.5773   -9.0951    0.0000 C   0  0  1  0  0  0  0  0  0  0  0  0
   19.3978   -9.0088    0.0000 C   0  0  0  0  0  0  0  0  0  0  0  0
   19.8827   -9.6763    0.0000 C   0  0  0  0  0  0  0  0  0  0  0  0
   20.7032   -9.5900    0.0000 C   0  0  0  0  0  0  0  0  0  0  0  0
   21.0388   -8.8363    0.0000 C   0  0  0  0  0  0  0  0  0  0  0  0
   21.1881  -10.2575    0.0000 C   0  0  0  0  0  0  0  0  0  0  0  0
   17.5378   -8.0555    0.0000 C   0  0  0  0  0  0  0  0  0  0  0  0
   16.5232   -9.7625    0.0000 C   0  0  2  0  0  0  0  0  0  0  0  0
   16.5232   -8.9375    0.0000 C   0  0  0  0  0  0  0  0  0  0  0  0
   15.8087   -9.3500    0.0000 C   0  0  1  0  0  0  0  0  0  0  0  0
   15.0942   -9.7625    0.0000 C   0  0  0  0  0  0  0  0  0  0  0  0
   15.0942  -10.5875    0.0000 C   0  0  2  0  0  0  0  0  0  0  0  0
   14.3797  -11.0000    0.0000 C   0  0  1  0  0  0  0  0  0  0  0  0
   14.3797  -10.1750    0.0000 C   0  0  0  0  0  0  0  0  0  0  0  0
   15.0942  -11.4125    0.0000 H   0  0  0  0  0  0  0  0  0  0  0  0
   15.8087  -10.1750    0.0000 H   0  0  0  0  0  0  0  0  0  0  0  0
   16.5232  -11.4125    0.0000 H   0  0  0  0  0  0  0  0  0  0  0  0
   12.2363  -12.2375    0.0000 O   0  0  0  0  0  0  0  0  0  0  0  0
   10.8071  -10.5733    0.0000 C   0  0  2  0  0  0  0  0  0  0  0  0
   10.0909  -10.9829    0.0000 C   0  0  1  0  0  0  0  0  0  0  0  0
   10.0876  -11.8078    0.0000 C   0  0  1  0  0  0  0  0  0  0  0  0
   10.8003  -12.2233    0.0000 C   0  0  2  0  0  0  0  0  0  0  0  0
   11.5165  -11.8137    0.0000 C   0  0  1  0  0  0  0  0  0  0  0  0
   11.5199  -10.9887    0.0000 O   0  0  0  0  0  0  0  0  0  0  0  0
   10.8105   -9.7483    0.0000 C   0  0  0  0  0  0  0  0  0  0  0  0
    9.3714  -12.2174    0.0000 O   0  0  0  0  0  0  0  0  0  0  0  0
    9.3782  -10.5674    0.0000 O   0  0  0  0  0  0  0  0  0  0  0  0
   10.7970  -13.0483    0.0000 O   0  0  0  0  0  0  0  0  0  0  0  0
   10.0977   -9.3329    0.0000 O   0  0  0  0  0  0  0  0  0  0  0  0
   22.0086  -10.1712    0.0000 O   0  0  0  0  0  0  0  0  0  0  0  0
   22.4935  -10.8387    0.0000 C   0  0  2  0  0  0  0  0  0  0  0  0
   22.1580  -11.5923    0.0000 O   0  0  0  0  0  0  0  0  0  0  0  0
   22.6429  -12.2598    0.0000 C   0  0  1  0  0  0  0  0  0  0  0  0
   23.4634  -12.1735    0.0000 C   0  0  2  0  0  0  0  0  0  0  0  0
   23.7989  -11.4199    0.0000 C   0  0  1  0  0  0  0  0  0  0  0  0
   23.3140  -10.7524    0.0000 C   0  0  1  0  0  0  0  0  0  0  0  0
   22.3073  -13.0135    0.0000 C   0  0  0  0  0  0  0  0  0  0  0  0
   24.6194  -11.3336    0.0000 O   0  0  0  0  0  0  0  0  0  0  0  0
   23.6496   -9.9988    0.0000 O   0  0  0  0  0  0  0  0  0  0  0  0
   23.9483  -12.8410    0.0000 O   0  0  0  0  0  0  0  0  0  0  0  0
   22.7923  -13.6809    0.0000 O   0  0  0  0  0  0  0  0  0  0  0  0
    8.9836   -9.8429    0.0000 C   0  0  2  0  0  0  0  0  0  0  0  0
    9.4167   -9.1407    0.0000 O   0  0  0  0  0  0  0  0  0  0  0  0
    9.0135   -8.4143    0.0000 C   0  0  1  0  0  0  0  0  0  0  0  0
    8.1887   -8.3971    0.0000 C   0  0  2  0  0  0  0  0  0  0  0  0
    7.7555   -9.1060    0.0000 C   0  0  1  0  0  0  0  0  0  0  0  0
    8.1589   -9.8256    0.0000 C   0  0  1  0  0  0  0  0  0  0  0  0
    9.4394   -7.7077    0.0000 C   0  0  0  0  0  0  0  0  0  0  0  0
    6.9306   -9.0904    0.0000 O   0  0  0  0  0  0  0  0  0  0  0  0
    7.7927   -7.6733    0.0000 O   0  0  0  0  0  0  0  0  0  0  0  0
    7.7344  -10.5331    0.0000 O   0  0  0  0  0  0  0  0  0  0  0  0
    9.0405   -6.9856    0.0000 O   0  0  0  0  0  0  0  0  0  0  0  0
    6.3013  -10.5428    0.0000 O   0  0  0  0  0  0  0  0  0  0  0  0
    7.0223  -10.9497    0.0000 C   0  0  2  0  0  0  0  0  0  0  0  0
    6.5317   -8.3683    0.0000 C   0  0  2  0  0  0  0  0  0  0  0  0
    6.9708   -7.6699    0.0000 O   0  0  0  0  0  0  0  0  0  0  0  0
    6.5855   -6.9404    0.0000 C   0  0  1  0  0  0  0  0  0  0  0  0
    5.7611   -6.9093    0.0000 C   0  0  2  0  0  0  0  0  0  0  0  0
    5.3220   -7.6077    0.0000 C   0  0  1  0  0  0  0  0  0  0  0  0
    5.7073   -8.3372    0.0000 C   0  0  1  0  0  0  0  0  0  0  0  0
    5.6040  -10.9640    0.0000 C   0  0  1  0  0  0  0  0  0  0  0  0
    5.6128  -11.8065    0.0000 C   0  0  2  0  0  0  0  0  0  0  0  0
    6.3264  -12.2206    0.0000 C   0  0  1  0  0  0  0  0  0  0  0  0
    7.0311  -11.7922    0.0000 C   0  0  1  0  0  0  0  0  0  0  0  0
    4.8834  -10.5623    0.0000 C   0  0  0  0  0  0  0  0  0  0  0  0
    6.3348  -13.0456    0.0000 O   0  0  0  0  0  0  0  0  0  0  0  0
    7.7523  -12.1928    0.0000 O   0  0  0  0  0  0  0  0  0  0  0  0
    4.9000  -12.2219    0.0000 O   0  0  0  0  0  0  0  0  0  0  0  0
    7.0247   -6.2420    0.0000 C   0  0  0  0  0  0  0  0  0  0  0  0
    4.4976   -7.5766    0.0000 O   0  0  0  0  0  0  0  0  0  0  0  0
    5.2681   -9.0356    0.0000 O   0  0  0  0  0  0  0  0  0  0  0  0
    5.3758   -6.1798    0.0000 O   0  0  0  0  0  0  0  0  0  0  0  0
    6.6394   -5.5124    0.0000 O   0  0  0  0  0  0  0  0  0  0  0  0
    4.1752  -10.9856    0.0000 O   0  0  0  0  0  0  0  0  0  0  0  0
   14.3797  -12.6500    0.0000 H   0  0  0  0  0  0  0  0  0  0  0  0
   18.7908   -8.2982    0.0000 O   0  0  0  0  0  0  0  0  0  0  0  0
   15.8087   -8.5250    0.0000 O   0  0  0  0  0  0  0  0  0  0  0  0
    3.7890   -7.9991    0.0000 C   0  0  2  0  0  0  0  0  0  0  0  0
    3.0762   -7.5837    0.0000 O   0  0  0  0  0  0  0  0  0  0  0  0
    2.3600   -7.9933    0.0000 C   0  0  1  0  0  0  0  0  0  0  0  0
    2.3567   -8.8183    0.0000 C   0  0  2  0  0  0  0  0  0  0  0  0
    3.0694   -9.2337    0.0000 C   0  0  1  0  0  0  0  0  0  0  0  0
    3.7856   -8.8241    0.0000 C   0  0  1  0  0  0  0  0  0  0  0  0
    1.6473   -7.5778    0.0000 C   0  0  0  0  0  0  0  0  0  0  0  0
    3.0660  -10.0587    0.0000 O   0  0  0  0  0  0  0  0  0  0  0  0
    4.4984   -9.2396    0.0000 O   0  0  0  0  0  0  0  0  0  0  0  0
    1.6405   -9.2278    0.0000 O   0  0  0  0  0  0  0  0  0  0  0  0
    0.9311   -7.9874    0.0000 O   0  0  0  0  0  0  0  0  0  0  0  0
  1  2  1  0  0  0  0
  2  3  1  0  0  0  0
  1  4  1  0  0  0  0
  4  5  1  0  0  0  0
  5  6  1  0  0  0  0
  6  7  1  0  0  0  0
  7  8  1  0  0  0  0
  8  9  1  0  0  0  0
  9 10  1  0  0  0  0
 10 11  1  0  0  0  0
 11 12  1  6  0  0  0
 11 13  1  0  0  0  0
 11 14  1  0  0  0  0
 14 15  1  6  0  0  0
 14 16  1  0  0  0  0
 16 17  1  0  0  0  0
 13 17  1  0  0  0  0
 17 18  1  0  0  0  0
 18 19  1  0  0  0  0
 19 20  1  0  0  0  0
 20 21  2  0  0  0  0
 20 22  1  0  0  0  0
 16 23  1  6  0  0  0
 14 24  1  0  0  0  0
  9 24  1  0  0  0  0
 24 25  1  1  0  0  0
 24 26  1  0  0  0  0
 26 27  1  0  0  0  0
 27 28  1  0  0  0  0
  8 28  1  0  0  0  0
 28 29  1  0  0  0  0
  3 29  1  0  0  0  0
  5 29  1  0  0  0  0
 29 30  1  1  0  0  0
 28 31  1  6  0  0  0
  8 32  1  1  0  0  0
  9 33  1  6  0  0  0
  1 34  1  1  0  0  0
 35 36  1  0  0  0  0
 36 37  1  0  0  0  0
 37 38  1  0  0  0  0
 38 39  1  0  0  0  0
 39 40  1  0  0  0  0
 40 35  1  0  0  0  0
 35 41  1  1  0  0  0
 37 42  1  1  0  0  0
 36 43  1  1  0  0  0
 38 44  1  6  0  0  0
 41 45  1  0  0  0  0
 39 34  1  1  0  0  0
 22 46  1  0  0  0  0
 47 46  1  1  0  0  0
 47 48  1  0  0  0  0
 48 49  1  0  0  0  0
 49 50  1  0  0  0  0
 50 51  1  0  0  0  0
 51 52  1  0  0  0  0
 52 47  1  0  0  0  0
 49 53  1  1  0  0  0
 51 54  1  1  0  0  0
 52 55  1  6  0  0  0
 50 56  1  6  0  0  0
 53 57  1  0  0  0  0
 58 43  1  1  0  0  0
 58 59  1  0  0  0  0
 59 60  1  0  0  0  0
 60 61  1  0  0  0  0
 61 62  1  0  0  0  0
 62 63  1  0  0  0  0
 63 58  1  0  0  0  0
 60 64  1  1  0  0  0
 62 65  1  1  0  0  0
 61 66  1  6  0  0  0
 63 67  1  6  0  0  0
 64 68  1  0  0  0  0
 70 67  1  1  0  0  0
 71 65  1  1  0  0  0
 71 72  1  0  0  0  0
 72 73  1  0  0  0  0
 73 74  1  0  0  0  0
 74 75  1  0  0  0  0
 75 76  1  0  0  0  0
 76 71  1  0  0  0  0
 70 69  1  0  0  0  0
 69 77  1  0  0  0  0
 77 78  1  0  0  0  0
 78 79  1  0  0  0  0
 79 80  1  0  0  0  0
 80 70  1  0  0  0  0
 77 81  1  1  0  0  0
 79 82  1  1  0  0  0
 80 83  1  6  0  0  0
 78 84  1  6  0  0  0
 73 85  1  1  0  0  0
 75 86  1  1  0  0  0
 76 87  1  6  0  0  0
 74 88  1  6  0  0  0
 85 89  1  0  0  0  0
 81 90  1  0  0  0  0
  5 91  1  6  0  0  0
 17 92  1  6  0  0  0
 26 93  1  1  0  0  0
 94 86  1  1  0  0  0
 94 95  1  0  0  0  0
 95 96  1  0  0  0  0
 96 97  1  0  0  0  0
 97 98  1  0  0  0  0
 98 99  1  0  0  0  0
 99 94  1  0  0  0  0
 96100  1  1  0  0  0
 98101  1  1  0  0  0
 99102  1  6  0  0  0
 97103  1  6  0  0  0
100104  1  0  0  0  0
M  END
>  <cdx:fragmentId>
5

$$$$
