98799.cdx
  Mrv1902 05222410252D          

 70 78  0  0  0  0            999 V2000
   13.0998   -8.7576    0.0000 C   0  0  2  0  0  0  0  0  0  0  0  0
   13.0998   -9.5001    0.0000 C   0  0  1  0  0  0  0  0  0  0  0  0
   13.7429   -9.8714    0.0000 C   0  0  0  0  0  0  0  0  0  0  0  0
   14.3859   -9.5001    0.0000 C   0  0  2  0  0  0  0  0  0  0  0  0
   14.3859   -8.7576    0.0000 C   0  0  2  0  0  0  0  0  0  0  0  0
   13.7429   -8.3864    0.0000 C   0  0  0  0  0  0  0  0  0  0  0  0
   15.0289   -9.8714    0.0000 C   0  0  0  0  0  0  0  0  0  0  0  0
   15.6719   -9.5001    0.0000 C   0  0  0  0  0  0  0  0  0  0  0  0
   15.6719   -8.7576    0.0000 C   0  0  2  0  0  0  0  0  0  0  0  0
   15.0289   -8.3864    0.0000 C   0  0  2  0  0  0  0  0  0  0  0  0
   16.3150   -8.3864    0.0000 C   0  0  1  0  0  0  0  0  0  0  0  0
   16.3150   -7.6439    0.0000 C   0  0  1  0  0  0  0  0  0  0  0  0
   15.6719   -7.2726    0.0000 C   0  0  0  0  0  0  0  0  0  0  0  0
   15.0289   -7.6439    0.0000 C   0  0  0  0  0  0  0  0  0  0  0  0
   12.4568   -9.8714    0.0000 O   0  0  0  0  0  0  0  0  0  0  0  0
   14.3859   -8.0151    0.0000 C   0  0  0  0  0  0  0  0  0  0  0  0
   16.3150   -6.9014    0.0000 C   0  0  0  0  0  0  0  0  0  0  0  0
   14.3859  -10.2426    0.0000 H   0  0  0  0  0  0  0  0  0  0  0  0
   11.2177   -8.3833    0.0000 C   0  0  2  0  0  0  0  0  0  0  0  0
   10.5748   -8.7548    0.0000 C   0  0  1  0  0  0  0  0  0  0  0  0
   10.5750   -9.4973    0.0000 C   0  0  1  0  0  0  0  0  0  0  0  0
   11.2181   -9.8683    0.0000 C   0  0  2  0  0  0  0  0  0  0  0  0
   11.8610   -9.4969    0.0000 C   0  0  1  0  0  0  0  0  0  0  0  0
   11.8608   -8.7544    0.0000 O   0  0  0  0  0  0  0  0  0  0  0  0
   11.2175   -7.6408    0.0000 C   0  0  0  0  0  0  0  0  0  0  0  0
    9.9321   -9.8687    0.0000 O   0  0  0  0  0  0  0  0  0  0  0  0
    9.9316   -8.3837    0.0000 O   0  0  0  0  0  0  0  0  0  0  0  0
   11.2183  -10.6108    0.0000 O   0  0  0  0  0  0  0  0  0  0  0  0
   10.5743   -7.2698    0.0000 O   0  0  0  0  0  0  0  0  0  0  0  0
    9.2822  -10.9812    0.0000 C   0  0  2  0  0  0  0  0  0  0  0  0
    9.2853  -11.7237    0.0000 C   0  0  2  0  0  0  0  0  0  0  0  0
    9.9299  -12.0923    0.0000 C   0  0  1  0  0  0  0  0  0  0  0  0
   10.5714  -11.7183    0.0000 C   0  0  2  0  0  0  0  0  0  0  0  0
   10.5683  -10.9759    0.0000 C   0  0  1  0  0  0  0  0  0  0  0  0
    9.9237  -10.6073    0.0000 O   0  0  0  0  0  0  0  0  0  0  0  0
    8.6377  -10.6127    0.0000 C   0  0  0  0  0  0  0  0  0  0  0  0
    9.9330  -12.8348    0.0000 O   0  0  0  0  0  0  0  0  0  0  0  0
    8.6439  -12.0977    0.0000 O   0  0  0  0  0  0  0  0  0  0  0  0
   11.2159  -12.0869    0.0000 O   0  0  0  0  0  0  0  0  0  0  0  0
    7.9962  -10.9866    0.0000 O   0  0  0  0  0  0  0  0  0  0  0  0
   15.0289   -9.1289    0.0000 H   0  0  0  0  0  0  0  0  0  0  0  0
   15.6719   -8.0151    0.0000 H   0  0  0  0  0  0  0  0  0  0  0  0
   16.3150   -9.1289    0.0000 H   0  0  0  0  0  0  0  0  0  0  0  0
   17.0211   -8.6158    0.0000 C   0  0  0  0  0  0  0  0  0  0  0  0
   17.4576   -8.0151    0.0000 C   0  0  1  0  0  0  0  0  0  0  0  0
   17.0211   -7.4145    0.0000 C   0  0  2  0  0  0  0  0  0  0  0  0
   18.1637   -7.7857    0.0000 O   0  0  0  0  0  0  0  0  0  0  0  0
   18.1637   -7.0432    0.0000 C   0  0  1  0  0  0  0  0  0  0  0  0
   17.4576   -6.8138    0.0000 C   0  0  1  0  0  0  0  0  0  0  0  0
   18.9174   -7.3788    0.0000 C   0  0  0  0  0  0  0  0  0  0  0  0
   19.5848   -6.8938    0.0000 C   0  0  0  0  0  0  0  0  0  0  0  0
   19.4986   -6.0734    0.0000 C   0  0  0  0  0  0  0  0  0  0  0  0
   18.7449   -5.7378    0.0000 C   0  0  0  0  0  0  0  0  0  0  0  0
   18.0775   -6.2227    0.0000 O   0  0  0  0  0  0  0  0  0  0  0  0
   16.6086   -6.7000    0.0000 H   0  0  0  0  0  0  0  0  0  0  0  0
   17.8701   -8.7296    0.0000 H   0  0  0  0  0  0  0  0  0  0  0  0
   17.2026   -6.0291    0.0000 C   0  0  0  0  0  0  0  0  0  0  0  0
   20.1660   -5.5884    0.0000 C   0  0  0  0  0  0  0  0  0  0  0  0
   12.3854   -8.3451    0.0000 O   0  0  0  0  0  0  0  0  0  0  0  0
    9.1067   -8.3958    0.0000 C   0  0  2  0  0  0  0  0  0  0  0  0
    8.6836   -7.6876    0.0000 O   0  0  0  0  0  0  0  0  0  0  0  0
    7.8591   -7.6992    0.0000 C   0  0  1  0  0  0  0  0  0  0  0  0
    7.4569   -8.4195    0.0000 C   0  0  2  0  0  0  0  0  0  0  0  0
    7.8796   -9.1275    0.0000 C   0  0  1  0  0  0  0  0  0  0  0  0
    8.7045   -9.1161    0.0000 C   0  0  1  0  0  0  0  0  0  0  0  0
    7.4365   -6.9907    0.0000 C   0  0  0  0  0  0  0  0  0  0  0  0
    7.4773   -9.8478    0.0000 O   0  0  0  0  0  0  0  0  0  0  0  0
    9.1270   -9.8247    0.0000 O   0  0  0  0  0  0  0  0  0  0  0  0
    6.6320   -8.4315    0.0000 O   0  0  0  0  0  0  0  0  0  0  0  0
    6.6115   -7.0024    0.0000 O   0  0  0  0  0  0  0  0  0  0  0  0
  1  2  1  0  0  0  0
  2  3  1  0  0  0  0
  3  4  1  0  0  0  0
  4  5  1  0  0  0  0
  5  6  1  0  0  0  0
  6  1  1  0  0  0  0
  4  7  1  0  0  0  0
  7  8  1  0  0  0  0
  8  9  1  0  0  0  0
  9 10  1  0  0  0  0
 10  5  1  0  0  0  0
  9 11  1  0  0  0  0
 11 12  1  0  0  0  0
 12 13  1  0  0  0  0
 13 14  1  0  0  0  0
 14 10  1  0  0  0  0
  2 15  1  1  0  0  0
  5 16  1  1  0  0  0
 12 17  1  1  0  0  0
  4 18  1  1  0  0  0
 19 20  1  0  0  0  0
 20 21  1  0  0  0  0
 21 22  1  0  0  0  0
 22 23  1  0  0  0  0
 23 24  1  0  0  0  0
 24 19  1  0  0  0  0
 19 25  1  1  0  0  0
 21 26  1  1  0  0  0
 20 27  1  1  0  0  0
 22 28  1  6  0  0  0
 25 29  1  0  0  0  0
 30 31  1  0  0  0  0
 31 32  1  0  0  0  0
 32 33  1  0  0  0  0
 33 34  1  0  0  0  0
 34 35  1  0  0  0  0
 35 30  1  0  0  0  0
 30 36  1  1  0  0  0
 32 37  1  1  0  0  0
 31 38  1  6  0  0  0
 33 39  1  6  0  0  0
 36 40  1  0  0  0  0
 34 28  1  1  0  0  0
 23 15  1  1  0  0  0
 10 41  1  6  0  0  0
  9 42  1  1  0  0  0
 11 43  1  6  0  0  0
 11 44  1  0  0  0  0
 44 45  1  0  0  0  0
 45 46  1  0  0  0  0
 46 12  1  0  0  0  0
 45 47  1  0  0  0  0
 48 47  1  6  0  0  0
 48 49  1  0  0  0  0
 49 46  1  0  0  0  0
 48 50  1  0  0  0  0
 50 51  1  0  0  0  0
 51 52  1  0  0  0  0
 52 53  1  0  0  0  0
 53 54  1  0  0  0  0
 54 48  1  0  0  0  0
 46 55  1  6  0  0  0
 45 56  1  6  0  0  0
 49 57  1  6  0  0  0
 52 58  2  0  0  0  0
  1 59  1  1  0  0  0
 60 27  1  1  0  0  0
 60 61  1  0  0  0  0
 61 62  1  0  0  0  0
 62 63  1  0  0  0  0
 63 64  1  0  0  0  0
 64 65  1  0  0  0  0
 65 60  1  0  0  0  0
 62 66  1  1  0  0  0
 64 67  1  1  0  0  0
 65 68  1  6  0  0  0
 63 69  1  6  0  0  0
 66 70  1  0  0  0  0
M  END
>  <cdx:fragmentId>
794

$$$$
