98804.cdx
  Mrv1902 05222410212D          

 34 36  0  0  0  0            999 V2000
   13.1181   -9.3860    0.0000 C   0  0  0  0  0  0  0  0  0  0  0  0
   12.4037   -8.9735    0.0000 C   0  0  0  0  0  0  0  0  0  0  0  0
   11.6892   -9.3860    0.0000 C   0  0  0  0  0  0  0  0  0  0  0  0
   10.9747   -8.9735    0.0000 C   0  0  0  0  0  0  0  0  0  0  0  0
   12.4037   -8.1485    0.0000 O   0  0  0  0  0  0  0  0  0  0  0  0
   10.2603   -9.3860    0.0000 C   0  0  0  0  0  0  0  0  0  0  0  0
    9.5458   -8.9735    0.0000 C   0  0  0  0  0  0  0  0  0  0  0  0
    8.8313   -9.3860    0.0000 C   0  0  0  0  0  0  0  0  0  0  0  0
    8.8313  -10.2110    0.0000 C   0  0  0  0  0  0  0  0  0  0  0  0
    9.5458  -10.6235    0.0000 C   0  0  0  0  0  0  0  0  0  0  0  0
   10.2603  -10.2110    0.0000 C   0  0  0  0  0  0  0  0  0  0  0  0
    8.1168  -10.6235    0.0000 O   0  0  0  0  0  0  0  0  0  0  0  0
    6.6813   -8.9777    0.0000 C   0  0  2  0  0  0  0  0  0  0  0  0
    5.9656   -9.3881    0.0000 C   0  0  2  0  0  0  0  0  0  0  0  0
    5.9632  -10.2131    0.0000 C   0  0  1  0  0  0  0  0  0  0  0  0
    6.6764  -10.6277    0.0000 C   0  0  2  0  0  0  0  0  0  0  0  0
    7.3921  -10.2172    0.0000 C   0  0  1  0  0  0  0  0  0  0  0  0
    7.3945   -9.3922    0.0000 O   0  0  0  0  0  0  0  0  0  0  0  0
    6.6837   -8.1527    0.0000 C   0  0  0  0  0  0  0  0  0  0  0  0
    5.2475  -10.6235    0.0000 O   0  0  0  0  0  0  0  0  0  0  0  0
    5.2523   -8.9735    0.0000 O   0  0  0  0  0  0  0  0  0  0  0  0
    6.6740  -11.4527    0.0000 O   0  0  0  0  0  0  0  0  0  0  0  0
    5.9704   -7.7381    0.0000 O   0  0  0  0  0  0  0  0  0  0  0  0
    5.9704   -6.9131    0.0000 C   0  0  0  0  0  0  0  0  0  0  0  0
    6.6849   -6.5006    0.0000 O   0  0  0  0  0  0  0  0  0  0  0  0
    5.2559   -6.5006    0.0000 C   0  0  0  0  0  0  0  0  0  0  0  0
    5.2559   -5.6756    0.0000 C   0  0  0  0  0  0  0  0  0  0  0  0
    4.5415   -5.2631    0.0000 C   0  0  0  0  0  0  0  0  0  0  0  0
    4.5415   -4.4381    0.0000 C   0  0  0  0  0  0  0  0  0  0  0  0
    3.8270   -4.0256    0.0000 C   0  0  0  0  0  0  0  0  0  0  0  0
    3.1125   -4.4381    0.0000 C   0  0  0  0  0  0  0  0  0  0  0  0
    3.1125   -5.2631    0.0000 C   0  0  0  0  0  0  0  0  0  0  0  0
    3.8270   -5.6756    0.0000 C   0  0  0  0  0  0  0  0  0  0  0  0
    2.3980   -4.0256    0.0000 O   0  0  0  0  0  0  0  0  0  0  0  0
  1  2  1  0  0  0  0
  2  3  1  0  0  0  0
  3  4  1  0  0  0  0
  2  5  2  0  0  0  0
  6  7  1  0  0  0  0
  7  8  2  0  0  0  0
  8  9  1  0  0  0  0
  9 10  2  0  0  0  0
 10 11  1  0  0  0  0
  6 11  2  0  0  0  0
  9 12  1  0  0  0  0
  4  6  1  0  0  0  0
 13 14  1  0  0  0  0
 14 15  1  0  0  0  0
 15 16  1  0  0  0  0
 16 17  1  0  0  0  0
 17 18  1  0  0  0  0
 18 13  1  0  0  0  0
 13 19  1  1  0  0  0
 15 20  1  1  0  0  0
 14 21  1  6  0  0  0
 16 22  1  6  0  0  0
 19 23  1  0  0  0  0
 17 12  1  1  0  0  0
 23 24  1  0  0  0  0
 24 25  2  0  0  0  0
 24 26  1  0  0  0  0
 26 27  2  0  0  0  0
 27 28  1  0  0  0  0
 28 29  2  0  0  0  0
 29 30  1  0  0  0  0
 30 31  2  0  0  0  0
 31 32  1  0  0  0  0
 32 33  2  0  0  0  0
 33 28  1  0  0  0  0
 31 34  1  0  0  0  0
M  END
>  <cdx:fragmentId>
15

$$$$
