98805.cdx
  Mrv1902 05222410212D          

 31 34  0  0  0  0            999 V2000
    8.3834   -8.4563    0.0000 O   0  0  0  0  0  0  0  0  0  0  0  0
    9.1038   -8.8583    0.0000 C   0  0  2  0  0  0  0  0  0  0  0  0
    9.1158   -9.6832    0.0000 O   0  0  0  0  0  0  0  0  0  0  0  0
    9.8362  -10.0853    0.0000 C   0  0  1  0  0  0  0  0  0  0  0  0
   10.5446   -9.6624    0.0000 C   0  0  2  0  0  0  0  0  0  0  0  0
   10.5326   -8.8375    0.0000 C   0  0  1  0  0  0  0  0  0  0  0  0
    9.8122   -8.4354    0.0000 C   0  0  1  0  0  0  0  0  0  0  0  0
    9.8483  -10.9102    0.0000 C   0  0  0  0  0  0  0  0  0  0  0  0
   11.2410   -8.4146    0.0000 O   0  0  0  0  0  0  0  0  0  0  0  0
   11.2650  -10.0645    0.0000 O   0  0  0  0  0  0  0  0  0  0  0  0
    9.8002   -7.6105    0.0000 O   0  0  0  0  0  0  0  0  0  0  0  0
   10.5687  -11.3122    0.0000 O   0  0  0  0  0  0  0  0  0  0  0  0
    7.6690   -8.8688    0.0000 C   0  0  0  0  0  0  0  0  0  0  0  0
    4.8111   -9.6937    0.0000 O   0  0  0  0  0  0  0  0  0  0  0  0
    3.3821   -6.3937    0.0000 O   0  0  0  0  0  0  0  0  0  0  0  0
    4.8111   -6.3937    0.0000 O   0  0  0  0  0  0  0  0  0  0  0  0
    6.2400   -6.3937    0.0000 O   0  0  0  0  0  0  0  0  0  0  0  0
    3.3821   -7.2188    0.0000 C   0  0  0  0  0  0  0  0  0  0  0  0
    2.6677   -7.6313    0.0000 C   0  0  0  0  0  0  0  0  0  0  0  0
    2.6677   -8.4563    0.0000 C   0  0  0  0  0  0  0  0  0  0  0  0
    3.3821   -8.8688    0.0000 C   0  0  0  0  0  0  0  0  0  0  0  0
    4.8111   -7.2188    0.0000 C   0  0  0  0  0  0  0  0  0  0  0  0
    4.0966   -7.6313    0.0000 C   0  0  0  0  0  0  0  0  0  0  0  0
    4.0966   -8.4563    0.0000 C   0  0  0  0  0  0  0  0  0  0  0  0
    4.8111   -8.8688    0.0000 C   0  0  0  0  0  0  0  0  0  0  0  0
    6.2400   -7.2188    0.0000 C   0  0  0  0  0  0  0  0  0  0  0  0
    5.5256   -7.6313    0.0000 C   0  0  0  0  0  0  0  0  0  0  0  0
    5.5256   -8.4563    0.0000 C   0  0  0  0  0  0  0  0  0  0  0  0
    6.2400   -8.8688    0.0000 C   0  0  0  0  0  0  0  0  0  0  0  0
    6.9545   -8.4563    0.0000 C   0  0  0  0  0  0  0  0  0  0  0  0
    6.9545   -7.6313    0.0000 C   0  0  0  0  0  0  0  0  0  0  0  0
  2  1  1  1  0  0  0
  2  3  1  0  0  0  0
  3  4  1  0  0  0  0
  4  5  1  0  0  0  0
  5  6  1  0  0  0  0
  6  7  1  0  0  0  0
  7  2  1  0  0  0  0
  4  8  1  1  0  0  0
  6  9  1  1  0  0  0
  5 10  1  6  0  0  0
  7 11  1  6  0  0  0
 13  1  1  0  0  0  0
  8 12  1  0  0  0  0
 30 13  1  0  0  0  0
 25 14  2  0  0  0  0
 18 15  1  0  0  0  0
 22 16  2  0  0  0  0
 26 17  1  0  0  0  0
 18 23  1  0  0  0  0
 19 18  2  0  0  0  0
 20 19  1  0  0  0  0
 21 20  2  0  0  0  0
 24 21  1  0  0  0  0
 22 27  1  0  0  0  0
 23 22  1  0  0  0  0
 24 23  2  0  0  0  0
 25 24  1  0  0  0  0
 28 25  1  0  0  0  0
 26 31  1  0  0  0  0
 27 26  2  0  0  0  0
 28 27  1  0  0  0  0
 29 28  2  0  0  0  0
 30 29  1  0  0  0  0
 31 30  2  0  0  0  0
M  END
>  <cdx:fragmentId>
5

$$$$
