98810.cdx
  Mrv1902 05222410212D          

 79 88  0  0  0  0            999 V2000
   15.8136  -10.4445    0.0000 C   0  0  1  0  0  0  0  0  0  0  0  0
   16.5281  -10.0320    0.0000 C   0  0  2  0  0  0  0  0  0  0  0  0
   17.3127  -10.2869    0.0000 C   0  0  0  0  0  0  0  0  0  0  0  0
   17.7976   -9.6195    0.0000 C   0  0  2  0  0  0  0  0  0  0  0  0
   18.5823   -9.3645    0.0000 O   0  0  0  0  0  0  0  0  0  0  0  0
   18.5823   -8.5395    0.0000 C   0  0  2  0  0  0  0  0  0  0  0  0
   17.7976   -8.2846    0.0000 C   0  0  2  0  0  0  0  0  0  0  0  0
   17.3127   -8.9520    0.0000 C   0  0  2  0  0  0  0  0  0  0  0  0
   16.5281   -9.2070    0.0000 C   0  0  1  0  0  0  0  0  0  0  0  0
   15.8136   -8.7945    0.0000 C   0  0  0  0  0  0  0  0  0  0  0  0
   15.0992   -9.2070    0.0000 C   0  0  0  0  0  0  0  0  0  0  0  0
   15.0992  -10.0320    0.0000 C   0  0  2  0  0  0  0  0  0  0  0  0
   14.3847  -10.4445    0.0000 C   0  0  1  0  0  0  0  0  0  0  0  0
   13.6702  -10.0320    0.0000 C   0  0  0  0  0  0  0  0  0  0  0  0
   12.9557  -10.4445    0.0000 C   0  0  0  0  0  0  0  0  0  0  0  0
   12.9557  -11.2695    0.0000 C   0  0  1  0  0  0  0  0  0  0  0  0
   13.6702  -11.6820    0.0000 C   0  0  0  0  0  0  0  0  0  0  0  0
   14.3847  -11.2695    0.0000 C   0  0  0  0  0  0  0  0  0  0  0  0
   15.0992  -11.6820    0.0000 C   0  0  0  0  0  0  0  0  0  0  0  0
   15.8136  -11.2695    0.0000 C   0  0  0  0  0  0  0  0  0  0  0  0
   18.4960   -7.7191    0.0000 O   0  0  0  0  0  0  0  0  0  0  0  0
   19.3359   -8.8751    0.0000 C   0  0  0  0  0  0  0  0  0  0  0  0
   20.0034   -8.3902    0.0000 C   0  0  0  0  0  0  0  0  0  0  0  0
   19.9171   -7.5697    0.0000 C   0  0  2  0  0  0  0  0  0  0  0  0
   19.1635   -7.2341    0.0000 C   0  0  0  0  0  0  0  0  0  0  0  0
   14.3847   -9.6195    0.0000 C   0  0  0  0  0  0  0  0  0  0  0  0
   16.5281   -8.3820    0.0000 C   0  0  0  0  0  0  0  0  0  0  0  0
   17.5427   -7.5000    0.0000 C   0  0  0  0  0  0  0  0  0  0  0  0
   20.5846   -7.0848    0.0000 C   0  0  0  0  0  0  0  0  0  0  0  0
   12.2413  -11.6820    0.0000 O   0  0  0  0  0  0  0  0  0  0  0  0
   15.8136   -9.6195    0.0000 H   0  0  0  0  0  0  0  0  0  0  0  0
   16.5281  -10.8570    0.0000 H   0  0  0  0  0  0  0  0  0  0  0  0
   18.2826  -10.2869    0.0000 H   0  0  0  0  0  0  0  0  0  0  0  0
   16.9511   -8.2105    0.0000 H   0  0  0  0  0  0  0  0  0  0  0  0
   15.0992  -10.8570    0.0000 H   0  0  0  0  0  0  0  0  0  0  0  0
   11.5164  -11.2669    0.0000 C   0  0  1  0  0  0  0  0  0  0  0  0
   10.8015  -11.6787    0.0000 C   0  0  2  0  0  0  0  0  0  0  0  0
   10.8007  -12.5037    0.0000 O   0  0  0  0  0  0  0  0  0  0  0  0
   10.0875  -11.2655    0.0000 C   0  0  1  0  0  0  0  0  0  0  0  0
    9.3726  -11.6773    0.0000 O   0  0  0  0  0  0  0  0  0  0  0  0
   10.0883  -10.4405    0.0000 C   0  0  1  0  0  0  0  0  0  0  0  0
    9.3743  -10.0273    0.0000 O   0  0  0  0  0  0  0  0  0  0  0  0
   10.8032  -10.0287    0.0000 C   0  0  2  0  0  0  0  0  0  0  0  0
   11.5173  -10.4419    0.0000 O   0  0  0  0  0  0  0  0  0  0  0  0
   10.8040   -9.2037    0.0000 C   0  0  0  0  0  0  0  0  0  0  0  0
   10.0900   -8.7905    0.0000 O   0  0  0  0  0  0  0  0  0  0  0  0
    8.5493  -10.0288    0.0000 C   0  0  2  0  0  0  0  0  0  0  0  0
    8.1361   -9.3147    0.0000 O   0  0  0  0  0  0  0  0  0  0  0  0
    7.3097   -9.3179    0.0000 C   0  0  1  0  0  0  0  0  0  0  0  0
    6.8993  -10.0336    0.0000 C   0  0  2  0  0  0  0  0  0  0  0  0
    7.3138  -10.7485    0.0000 C   0  0  1  0  0  0  0  0  0  0  0  0
    8.1388  -10.7445    0.0000 C   0  0  1  0  0  0  0  0  0  0  0  0
    8.5541  -11.4573    0.0000 O   0  0  0  0  0  0  0  0  0  0  0  0
    6.9037  -11.4644    0.0000 O   0  0  0  0  0  0  0  0  0  0  0  0
    6.0743  -10.0355    0.0000 O   0  0  0  0  0  0  0  0  0  0  0  0
    6.8948   -8.6048    0.0000 C   0  0  0  0  0  0  0  0  0  0  0  0
    6.0698   -8.6076    0.0000 O   0  0  0  0  0  0  0  0  0  0  0  0
    8.5727  -12.2821    0.0000 C   0  0  2  0  0  0  0  0  0  0  0  0
    7.8685  -12.7120    0.0000 O   0  0  0  0  0  0  0  0  0  0  0  0
    7.8887  -13.5367    0.0000 C   0  0  1  0  0  0  0  0  0  0  0  0
    8.6059  -13.9359    0.0000 C   0  0  2  0  0  0  0  0  0  0  0  0
    9.3125  -13.5102    0.0000 C   0  0  1  0  0  0  0  0  0  0  0  0
    9.2948  -12.6896    0.0000 C   0  0  1  0  0  0  0  0  0  0  0  0
    7.1826  -13.9635    0.0000 C   0  0  0  0  0  0  0  0  0  0  0  0
   10.0352  -13.9083    0.0000 O   0  0  0  0  0  0  0  0  0  0  0  0
   10.0027  -12.2659    0.0000 O   0  0  0  0  0  0  0  0  0  0  0  0
    8.6201  -14.7608    0.0000 O   0  0  0  0  0  0  0  0  0  0  0  0
    7.1992  -14.7883    0.0000 O   0  0  0  0  0  0  0  0  0  0  0  0
    6.0788  -11.4672    0.0000 C   0  0  2  0  0  0  0  0  0  0  0  0
    5.6626  -10.7548    0.0000 O   0  0  0  0  0  0  0  0  0  0  0  0
    4.8376  -10.7548    0.0000 C   0  0  1  0  0  0  0  0  0  0  0  0
    4.4288  -11.4672    0.0000 C   0  0  2  0  0  0  0  0  0  0  0  0
    4.8376  -12.1795    0.0000 C   0  0  1  0  0  0  0  0  0  0  0  0
    5.6626  -12.1795    0.0000 C   0  0  1  0  0  0  0  0  0  0  0  0
    4.4242  -10.0409    0.0000 C   0  0  0  0  0  0  0  0  0  0  0  0
    4.4242  -12.8935    0.0000 O   0  0  0  0  0  0  0  0  0  0  0  0
    6.0733  -12.8950    0.0000 O   0  0  0  0  0  0  0  0  0  0  0  0
    3.6038  -11.4672    0.0000 O   0  0  0  0  0  0  0  0  0  0  0  0
    3.5992  -10.0419    0.0000 O   0  0  0  0  0  0  0  0  0  0  0  0
  1  2  1  0  0  0  0
  2  3  1  0  0  0  0
  3  4  1  0  0  0  0
  4  5  1  0  0  0  0
  6  5  1  6  0  0  0
  6  7  1  0  0  0  0
  7  8  1  0  0  0  0
  8  9  1  0  0  0  0
  9 10  1  0  0  0  0
 10 11  1  0  0  0  0
 11 12  1  0  0  0  0
 12 13  1  0  0  0  0
 13 14  1  0  0  0  0
 14 15  1  0  0  0  0
 15 16  1  0  0  0  0
 16 17  1  0  0  0  0
 17 18  1  0  0  0  0
 18 19  2  0  0  0  0
 19 20  1  0  0  0  0
  1 20  1  0  0  0  0
  1 12  1  0  0  0  0
 13 18  1  0  0  0  0
  2  9  1  0  0  0  0
  4  8  1  0  0  0  0
 22 23  1  0  0  0  0
 23 24  1  0  0  0  0
 24 25  1  0  0  0  0
 21 25  1  0  0  0  0
  6 21  1  0  0  0  0
  6 22  1  0  0  0  0
 13 26  1  1  0  0  0
  9 27  1  1  0  0  0
  7 28  1  6  0  0  0
 24 29  1  6  0  0  0
 16 30  1  1  0  0  0
  1 31  1  1  0  0  0
  2 32  1  6  0  0  0
  4 33  1  6  0  0  0
  8 34  1  6  0  0  0
 12 35  1  6  0  0  0
 36 37  1  0  0  0  0
 37 38  1  6  0  0  0
 37 39  1  0  0  0  0
 39 40  1  1  0  0  0
 39 41  1  0  0  0  0
 41 42  1  1  0  0  0
 41 43  1  0  0  0  0
 43 44  1  0  0  0  0
 43 45  1  1  0  0  0
 45 46  1  0  0  0  0
 36 44  1  0  0  0  0
 36 30  1  1  0  0  0
 47 42  1  1  0  0  0
 47 48  1  0  0  0  0
 48 49  1  0  0  0  0
 49 50  1  0  0  0  0
 50 51  1  0  0  0  0
 51 52  1  0  0  0  0
 52 47  1  0  0  0  0
 52 53  1  6  0  0  0
 51 54  1  1  0  0  0
 50 55  1  6  0  0  0
 49 56  1  1  0  0  0
 56 57  1  0  0  0  0
 58 53  1  1  0  0  0
 58 59  1  0  0  0  0
 59 60  1  0  0  0  0
 60 61  1  0  0  0  0
 61 62  1  0  0  0  0
 62 63  1  0  0  0  0
 63 58  1  0  0  0  0
 60 64  1  1  0  0  0
 62 65  1  1  0  0  0
 63 66  1  6  0  0  0
 61 67  1  6  0  0  0
 64 68  1  0  0  0  0
 69 54  1  1  0  0  0
 69 70  1  0  0  0  0
 70 71  1  0  0  0  0
 71 72  1  0  0  0  0
 72 73  1  0  0  0  0
 73 74  1  0  0  0  0
 74 69  1  0  0  0  0
 71 75  1  1  0  0  0
 73 76  1  1  0  0  0
 74 77  1  6  0  0  0
 72 78  1  6  0  0  0
 75 79  1  0  0  0  0
M  END
>  <cdx:fragmentId>
5

$$$$
