98827.cdx
  Mrv1902 05222410232D          

 70 78  0  0  0  0            999 V2000
   15.0940  -11.5494    0.0000 C   0  0  1  0  0  0  0  0  0  0  0  0
   15.8084  -11.1369    0.0000 C   0  0  2  0  0  0  0  0  0  0  0  0
   16.5930  -11.3919    0.0000 C   0  0  0  0  0  0  0  0  0  0  0  0
   17.0780  -10.7244    0.0000 C   0  0  2  0  0  0  0  0  0  0  0  0
   17.8626  -10.4695    0.0000 O   0  0  0  0  0  0  0  0  0  0  0  0
   17.8626   -9.6445    0.0000 C   0  0  2  0  0  0  0  0  0  0  0  0
   17.0780   -9.3895    0.0000 C   0  0  2  0  0  0  0  0  0  0  0  0
   16.5930  -10.0570    0.0000 C   0  0  2  0  0  0  0  0  0  0  0  0
   15.8084  -10.3119    0.0000 C   0  0  1  0  0  0  0  0  0  0  0  0
   15.0940   -9.8994    0.0000 C   0  0  0  0  0  0  0  0  0  0  0  0
   14.3795  -10.3119    0.0000 C   0  0  0  0  0  0  0  0  0  0  0  0
   14.3795  -11.1369    0.0000 C   0  0  2  0  0  0  0  0  0  0  0  0
   13.6650  -11.5494    0.0000 C   0  0  1  0  0  0  0  0  0  0  0  0
   12.9505  -11.1369    0.0000 C   0  0  0  0  0  0  0  0  0  0  0  0
   12.2361  -11.5494    0.0000 C   0  0  2  0  0  0  0  0  0  0  0  0
   12.2361  -12.3744    0.0000 C   0  0  1  0  0  0  0  0  0  0  0  0
   12.9505  -12.7869    0.0000 C   0  0  0  0  0  0  0  0  0  0  0  0
   13.6650  -12.3744    0.0000 C   0  0  2  0  0  0  0  0  0  0  0  0
   14.3795  -12.7869    0.0000 C   0  0  0  0  0  0  0  0  0  0  0  0
   15.0940  -12.3744    0.0000 C   0  0  0  0  0  0  0  0  0  0  0  0
   17.7764   -8.8240    0.0000 O   0  0  0  0  0  0  0  0  0  0  0  0
   18.6163   -9.9800    0.0000 C   0  0  0  0  0  0  0  0  0  0  0  0
   19.2837   -9.4951    0.0000 C   0  0  0  0  0  0  0  0  0  0  0  0
   19.1975   -8.6746    0.0000 C   0  0  1  0  0  0  0  0  0  0  0  0
   18.4438   -8.3391    0.0000 C   0  0  0  0  0  0  0  0  0  0  0  0
   13.6650  -10.7244    0.0000 C   0  0  0  0  0  0  0  0  0  0  0  0
   15.8084   -9.4869    0.0000 C   0  0  0  0  0  0  0  0  0  0  0  0
   16.8230   -8.6049    0.0000 C   0  0  0  0  0  0  0  0  0  0  0  0
   19.8649   -8.1897    0.0000 C   0  0  0  0  0  0  0  0  0  0  0  0
   15.0940  -10.7244    0.0000 H   0  0  0  0  0  0  0  0  0  0  0  0
   15.8084  -11.9619    0.0000 H   0  0  0  0  0  0  0  0  0  0  0  0
   17.5629  -11.3919    0.0000 H   0  0  0  0  0  0  0  0  0  0  0  0
   16.2314   -9.3155    0.0000 H   0  0  0  0  0  0  0  0  0  0  0  0
   14.3795  -11.9619    0.0000 H   0  0  0  0  0  0  0  0  0  0  0  0
   13.6650  -13.1994    0.0000 H   0  0  0  0  0  0  0  0  0  0  0  0
    8.6639  -12.7580    0.0000 O   0  0  0  0  0  0  0  0  0  0  0  0
    8.7139   -7.8083    0.0000 O   0  0  0  0  0  0  0  0  0  0  0  0
   10.1428   -7.8227    0.0000 O   0  0  0  0  0  0  0  0  0  0  0  0
   10.1344   -8.6477    0.0000 C   0  0  0  0  0  0  0  0  0  0  0  0
    7.2600  -10.2687    0.0000 O   0  0  0  0  0  0  0  0  0  0  0  0
    7.2767   -8.6188    0.0000 O   0  0  0  0  0  0  0  0  0  0  0  0
    9.4158   -9.0530    0.0000 C   0  0  2  0  0  0  0  0  0  0  0  0
    8.7055   -8.6333    0.0000 C   0  0  2  0  0  0  0  0  0  0  0  0
    7.9869   -9.0385    0.0000 C   0  0  1  0  0  0  0  0  0  0  0  0
    7.9786   -9.8635    0.0000 C   0  0  2  0  0  0  0  0  0  0  0  0
    8.6889  -10.2832    0.0000 C   0  0  1  0  0  0  0  0  0  0  0  0
    9.4075   -9.8779    0.0000 O   0  0  0  0  0  0  0  0  0  0  0  0
    8.6805  -11.1081    0.0000 O   0  0  0  0  0  0  0  0  0  0  0  0
   10.8363   -9.8924    0.0000 O   0  0  0  0  0  0  0  0  0  0  0  0
   10.1177  -10.2976    0.0000 C   0  0  0  0  0  0  0  0  0  0  0  0
   11.5216  -12.7869    0.0000 O   0  0  0  0  0  0  0  0  0  0  0  0
   10.1094  -11.1226    0.0000 C   0  0  2  0  0  0  0  0  0  0  0  0
    9.3908  -11.5278    0.0000 C   0  0  1  0  0  0  0  0  0  0  0  0
    9.3825  -12.3528    0.0000 C   0  0  1  0  0  0  0  0  0  0  0  0
   10.0927  -12.7725    0.0000 C   0  0  2  0  0  0  0  0  0  0  0  0
   10.8113  -12.3672    0.0000 C   0  0  1  0  0  0  0  0  0  0  0  0
   10.8197  -11.5423    0.0000 O   0  0  0  0  0  0  0  0  0  0  0  0
   10.0844  -13.5974    0.0000 O   0  0  0  0  0  0  0  0  0  0  0  0
    6.4350  -10.2604    0.0000 C   0  0  2  0  0  0  0  0  0  0  0  0
    6.0334   -9.5398    0.0000 O   0  0  0  0  0  0  0  0  0  0  0  0
    5.2085   -9.5273    0.0000 C   0  0  1  0  0  0  0  0  0  0  0  0
    4.7960  -10.2542    0.0000 C   0  0  2  0  0  0  0  0  0  0  0  0
    5.2085  -10.9685    0.0000 C   0  0  1  0  0  0  0  0  0  0  0  0
    6.0442  -10.9748    0.0000 C   0  0  1  0  0  0  0  0  0  0  0  0
    4.7987   -8.8113    0.0000 C   0  0  0  0  0  0  0  0  0  0  0  0
    4.7933  -11.6815    0.0000 O   0  0  0  0  0  0  0  0  0  0  0  0
    6.4622  -11.6860    0.0000 O   0  0  0  0  0  0  0  0  0  0  0  0
    3.9710  -10.2572    0.0000 O   0  0  0  0  0  0  0  0  0  0  0  0
    3.9737   -8.8081    0.0000 O   0  0  0  0  0  0  0  0  0  0  0  0
   11.5216  -11.1369    0.0000 O   0  0  0  0  0  0  0  0  0  0  0  0
 55 58  1  6  0  0  0
 54 36  1  1  0  0  0
 53 48  1  1  0  0  0
 46 48  1  1  0  0  0
 43 37  1  6  0  0  0
 42 39  1  1  0  0  0
 39 38  1  0  0  0  0
 45 40  1  6  0  0  0
 44 41  1  1  0  0  0
 47 42  1  0  0  0  0
 43 42  1  0  0  0  0
 44 43  1  0  0  0  0
 45 44  1  0  0  0  0
 46 45  1  0  0  0  0
 47 46  1  0  0  0  0
 52 50  1  1  0  0  0
 50 49  1  0  0  0  0
 56 51  1  1  0  0  0
 57 52  1  0  0  0  0
 53 52  1  0  0  0  0
 54 53  1  0  0  0  0
 55 54  1  0  0  0  0
 56 55  1  0  0  0  0
 57 56  1  0  0  0  0
  1  2  1  0  0  0  0
  2  3  1  0  0  0  0
  3  4  1  0  0  0  0
  4  5  1  0  0  0  0
  6  5  1  6  0  0  0
  6  7  1  0  0  0  0
  7  8  1  0  0  0  0
  8  9  1  0  0  0  0
  9 10  1  0  0  0  0
 10 11  1  0  0  0  0
 11 12  1  0  0  0  0
 12 13  1  0  0  0  0
 13 14  1  0  0  0  0
 14 15  1  0  0  0  0
 15 16  1  0  0  0  0
 16 17  1  0  0  0  0
 17 18  1  0  0  0  0
 18 19  1  0  0  0  0
 19 20  1  0  0  0  0
  1 20  1  0  0  0  0
  1 12  1  0  0  0  0
 13 18  1  0  0  0  0
  2  9  1  0  0  0  0
  4  8  1  0  0  0  0
 22 23  1  0  0  0  0
 23 24  1  0  0  0  0
 24 25  1  0  0  0  0
 21 25  1  0  0  0  0
  6 21  1  0  0  0  0
  6 22  1  0  0  0  0
 13 26  1  1  0  0  0
  9 27  1  1  0  0  0
  7 28  1  6  0  0  0
 24 29  1  1  0  0  0
 16 51  1  1  0  0  0
  1 30  1  1  0  0  0
  2 31  1  6  0  0  0
  4 32  1  6  0  0  0
  8 33  1  6  0  0  0
 12 34  1  6  0  0  0
 18 35  1  6  0  0  0
 59 40  1  1  0  0  0
 59 60  1  0  0  0  0
 60 61  1  0  0  0  0
 61 62  1  0  0  0  0
 62 63  1  0  0  0  0
 63 64  1  0  0  0  0
 64 59  1  0  0  0  0
 61 65  1  1  0  0  0
 63 66  1  1  0  0  0
 64 67  1  6  0  0  0
 62 68  1  6  0  0  0
 65 69  1  0  0  0  0
 15 70  1  6  0  0  0
M  END
>  <cdx:fragmentId>
198565

$$$$
