98820.cdx
  Mrv1902 05222410252D          

 82 90  0  0  0  0            999 V2000
   12.9783  -11.8250    0.0000 C   0  0  1  0  0  0  0  0  0  0  0  0
   12.9783  -11.0000    0.0000 C   0  0  1  0  0  0  0  0  0  0  0  0
   13.6928  -10.5875    0.0000 C   0  0  0  0  0  0  0  0  0  0  0  0
   13.6928  -12.2375    0.0000 C   0  0  0  0  0  0  0  0  0  0  0  0
   14.4072  -11.8250    0.0000 C   0  0  2  0  0  0  0  0  0  0  0  0
   15.1217  -12.2375    0.0000 C   0  0  0  0  0  0  0  0  0  0  0  0
   15.8362  -11.8250    0.0000 C   0  0  0  0  0  0  0  0  0  0  0  0
   15.8362  -11.0000    0.0000 C   0  0  1  0  0  0  0  0  0  0  0  0
   16.5507  -10.5875    0.0000 C   0  0  2  0  0  0  0  0  0  0  0  0
   17.3353  -10.8424    0.0000 C   0  0  0  0  0  0  0  0  0  0  0  0
   17.8202  -10.1750    0.0000 C   0  0  2  0  0  0  0  0  0  0  0  0
   18.3051  -10.8424    0.0000 H   0  0  0  0  0  0  0  0  0  0  0  0
   18.6048   -9.9201    0.0000 O   0  0  0  0  0  0  0  0  0  0  0  0
   17.3353   -9.5076    0.0000 C   0  0  2  0  0  0  0  0  0  0  0  0
   16.9736   -8.7661    0.0000 H   0  0  0  0  0  0  0  0  0  0  0  0
   17.8202   -8.8401    0.0000 C   0  0  1  0  0  0  0  0  0  0  0  0
   18.6048   -9.0951    0.0000 C   0  0  1  0  0  0  0  0  0  0  0  0
   19.4253   -9.0088    0.0000 C   0  0  0  0  0  0  0  0  0  0  0  0
   19.9102   -9.6763    0.0000 C   0  0  0  0  0  0  0  0  0  0  0  0
   20.7307   -9.5900    0.0000 C   0  0  0  0  0  0  0  0  0  0  0  0
   21.0663   -8.8363    0.0000 C   0  0  0  0  0  0  0  0  0  0  0  0
   21.2156  -10.2575    0.0000 C   0  0  0  0  0  0  0  0  0  0  0  0
   17.5653   -8.0555    0.0000 C   0  0  0  0  0  0  0  0  0  0  0  0
   16.5507   -9.7625    0.0000 C   0  0  2  0  0  0  0  0  0  0  0  0
   16.5507   -8.9375    0.0000 C   0  0  0  0  0  0  0  0  0  0  0  0
   15.8362   -9.3500    0.0000 C   0  0  0  0  0  0  0  0  0  0  0  0
   15.1217   -9.7625    0.0000 C   0  0  0  0  0  0  0  0  0  0  0  0
   15.1217  -10.5875    0.0000 C   0  0  2  0  0  0  0  0  0  0  0  0
   14.4072  -11.0000    0.0000 C   0  0  1  0  0  0  0  0  0  0  0  0
   14.4072  -10.1750    0.0000 C   0  0  0  0  0  0  0  0  0  0  0  0
   15.1217  -11.4125    0.0000 H   0  0  0  0  0  0  0  0  0  0  0  0
   15.8362  -10.1750    0.0000 H   0  0  0  0  0  0  0  0  0  0  0  0
   16.5507  -11.4125    0.0000 H   0  0  0  0  0  0  0  0  0  0  0  0
   12.2638  -12.2375    0.0000 O   0  0  0  0  0  0  0  0  0  0  0  0
   10.8346  -10.5733    0.0000 C   0  0  2  0  0  0  0  0  0  0  0  0
   10.1184  -10.9829    0.0000 C   0  0  1  0  0  0  0  0  0  0  0  0
   10.1151  -11.8078    0.0000 C   0  0  1  0  0  0  0  0  0  0  0  0
   10.8278  -12.2233    0.0000 C   0  0  2  0  0  0  0  0  0  0  0  0
   11.5440  -11.8137    0.0000 C   0  0  1  0  0  0  0  0  0  0  0  0
   11.5474  -10.9887    0.0000 O   0  0  0  0  0  0  0  0  0  0  0  0
   10.8380   -9.7483    0.0000 C   0  0  0  0  0  0  0  0  0  0  0  0
    9.3989  -12.2174    0.0000 O   0  0  0  0  0  0  0  0  0  0  0  0
    9.4057  -10.5674    0.0000 O   0  0  0  0  0  0  0  0  0  0  0  0
   10.8245  -13.0483    0.0000 O   0  0  0  0  0  0  0  0  0  0  0  0
   10.1252   -9.3329    0.0000 O   0  0  0  0  0  0  0  0  0  0  0  0
   22.0361  -10.1712    0.0000 O   0  0  0  0  0  0  0  0  0  0  0  0
   22.5210  -10.8387    0.0000 C   0  0  2  0  0  0  0  0  0  0  0  0
   22.1855  -11.5923    0.0000 O   0  0  0  0  0  0  0  0  0  0  0  0
   22.6704  -12.2598    0.0000 C   0  0  1  0  0  0  0  0  0  0  0  0
   23.4909  -12.1735    0.0000 C   0  0  2  0  0  0  0  0  0  0  0  0
   23.8264  -11.4199    0.0000 C   0  0  1  0  0  0  0  0  0  0  0  0
   23.3415  -10.7524    0.0000 C   0  0  1  0  0  0  0  0  0  0  0  0
   22.3348  -13.0135    0.0000 C   0  0  0  0  0  0  0  0  0  0  0  0
   24.6469  -11.3336    0.0000 O   0  0  0  0  0  0  0  0  0  0  0  0
   23.6771   -9.9988    0.0000 O   0  0  0  0  0  0  0  0  0  0  0  0
   23.9758  -12.8410    0.0000 O   0  0  0  0  0  0  0  0  0  0  0  0
   22.8198  -13.6809    0.0000 O   0  0  0  0  0  0  0  0  0  0  0  0
   18.8183   -8.2982    0.0000 O   0  0  0  0  0  0  0  0  0  0  0  0
    9.0111   -9.8429    0.0000 C   0  0  2  0  0  0  0  0  0  0  0  0
    9.4442   -9.1407    0.0000 O   0  0  0  0  0  0  0  0  0  0  0  0
    9.0410   -8.4143    0.0000 C   0  0  1  0  0  0  0  0  0  0  0  0
    8.2162   -8.3971    0.0000 C   0  0  2  0  0  0  0  0  0  0  0  0
    7.7830   -9.1060    0.0000 C   0  0  1  0  0  0  0  0  0  0  0  0
    8.1864   -9.8256    0.0000 C   0  0  1  0  0  0  0  0  0  0  0  0
    9.4669   -7.7077    0.0000 C   0  0  0  0  0  0  0  0  0  0  0  0
    6.9581   -9.0904    0.0000 O   0  0  0  0  0  0  0  0  0  0  0  0
    7.8202   -7.6733    0.0000 O   0  0  0  0  0  0  0  0  0  0  0  0
    7.7619  -10.5331    0.0000 O   0  0  0  0  0  0  0  0  0  0  0  0
    9.0680   -6.9856    0.0000 O   0  0  0  0  0  0  0  0  0  0  0  0
    6.3288  -10.5428    0.0000 O   0  0  0  0  0  0  0  0  0  0  0  0
    7.0498  -10.9497    0.0000 C   0  0  2  0  0  0  0  0  0  0  0  0
    5.6315  -10.9640    0.0000 C   0  0  1  0  0  0  0  0  0  0  0  0
    5.6403  -11.8065    0.0000 C   0  0  2  0  0  0  0  0  0  0  0  0
    6.3539  -12.2206    0.0000 C   0  0  1  0  0  0  0  0  0  0  0  0
    7.0586  -11.7922    0.0000 C   0  0  1  0  0  0  0  0  0  0  0  0
    4.9109  -10.5623    0.0000 C   0  0  0  0  0  0  0  0  0  0  0  0
    6.3623  -13.0456    0.0000 O   0  0  0  0  0  0  0  0  0  0  0  0
    7.7798  -12.1928    0.0000 O   0  0  0  0  0  0  0  0  0  0  0  0
    4.9275  -12.2219    0.0000 O   0  0  0  0  0  0  0  0  0  0  0  0
    4.2027  -10.9856    0.0000 O   0  0  0  0  0  0  0  0  0  0  0  0
   14.4072  -12.6500    0.0000 H   0  0  0  0  0  0  0  0  0  0  0  0
   12.2638  -10.5875    0.0000 O   0  0  0  0  0  0  0  0  0  0  0  0
  1  2  1  0  0  0  0
  2  3  1  0  0  0  0
  1  4  1  0  0  0  0
  4  5  1  0  0  0  0
  5  6  1  0  0  0  0
  6  7  1  0  0  0  0
  7  8  1  0  0  0  0
  8  9  1  0  0  0  0
  9 10  1  0  0  0  0
 10 11  1  0  0  0  0
 11 12  1  6  0  0  0
 11 13  1  0  0  0  0
 11 14  1  0  0  0  0
 14 15  1  6  0  0  0
 14 16  1  0  0  0  0
 16 17  1  0  0  0  0
 13 17  1  0  0  0  0
 17 18  1  0  0  0  0
 18 19  1  0  0  0  0
 19 20  1  0  0  0  0
 20 21  2  0  0  0  0
 20 22  1  0  0  0  0
 16 23  1  6  0  0  0
 14 24  1  0  0  0  0
  9 24  1  0  0  0  0
 24 25  1  1  0  0  0
 24 26  1  0  0  0  0
 26 27  1  0  0  0  0
 27 28  1  0  0  0  0
  8 28  1  0  0  0  0
 28 29  1  0  0  0  0
  3 29  1  0  0  0  0
  5 29  1  0  0  0  0
 29 30  1  1  0  0  0
 28 31  1  6  0  0  0
  8 32  1  1  0  0  0
  9 33  1  6  0  0  0
  1 34  1  1  0  0  0
 35 36  1  0  0  0  0
 36 37  1  0  0  0  0
 37 38  1  0  0  0  0
 38 39  1  0  0  0  0
 39 40  1  0  0  0  0
 40 35  1  0  0  0  0
 35 41  1  1  0  0  0
 37 42  1  1  0  0  0
 36 43  1  1  0  0  0
 38 44  1  6  0  0  0
 41 45  1  0  0  0  0
 39 34  1  1  0  0  0
 22 46  1  0  0  0  0
 47 46  1  1  0  0  0
 47 48  1  0  0  0  0
 48 49  1  0  0  0  0
 49 50  1  0  0  0  0
 50 51  1  0  0  0  0
 51 52  1  0  0  0  0
 52 47  1  0  0  0  0
 49 53  1  1  0  0  0
 51 54  1  1  0  0  0
 52 55  1  6  0  0  0
 50 56  1  6  0  0  0
 53 57  1  0  0  0  0
 17 58  1  6  0  0  0
 59 43  1  1  0  0  0
 59 60  1  0  0  0  0
 60 61  1  0  0  0  0
 61 62  1  0  0  0  0
 62 63  1  0  0  0  0
 63 64  1  0  0  0  0
 64 59  1  0  0  0  0
 61 65  1  1  0  0  0
 63 66  1  1  0  0  0
 62 67  1  6  0  0  0
 64 68  1  6  0  0  0
 65 69  1  0  0  0  0
 71 68  1  1  0  0  0
 71 70  1  0  0  0  0
 70 72  1  0  0  0  0
 72 73  1  0  0  0  0
 73 74  1  0  0  0  0
 74 75  1  0  0  0  0
 75 71  1  0  0  0  0
 72 76  1  1  0  0  0
 74 77  1  1  0  0  0
 75 78  1  6  0  0  0
 73 79  1  6  0  0  0
 76 80  1  0  0  0  0
  5 81  1  6  0  0  0
  2 82  1  6  0  0  0
M  END
>  <cdx:fragmentId>
5

$$$$
