98834.cdx
  Mrv1902 05222410252D          

 26 28  0  0  0  0            999 V2000
    2.6449   -7.6175    0.0000 C   0  0  0  0  0  0  0  0  0  0  0  0
    2.6449   -8.4425    0.0000 C   0  0  0  0  0  0  0  0  0  0  0  0
    3.3594   -8.8550    0.0000 C   0  0  0  0  0  0  0  0  0  0  0  0
    4.0739   -8.4425    0.0000 C   0  0  0  0  0  0  0  0  0  0  0  0
    4.0739   -7.6175    0.0000 C   0  0  0  0  0  0  0  0  0  0  0  0
    3.3594   -7.2050    0.0000 C   0  0  0  0  0  0  0  0  0  0  0  0
    4.7883   -8.8550    0.0000 O   0  0  0  0  0  0  0  0  0  0  0  0
    5.5028   -8.4425    0.0000 C   0  0  0  0  0  0  0  0  0  0  0  0
    5.5028   -7.6175    0.0000 C   0  0  0  0  0  0  0  0  0  0  0  0
    4.7883   -7.2050    0.0000 C   0  0  0  0  0  0  0  0  0  0  0  0
    6.2173   -8.8550    0.0000 C   0  0  0  0  0  0  0  0  0  0  0  0
    6.9318   -8.4425    0.0000 C   0  0  0  0  0  0  0  0  0  0  0  0
    6.9318   -7.6175    0.0000 C   0  0  0  0  0  0  0  0  0  0  0  0
    6.2173   -7.2050    0.0000 C   0  0  0  0  0  0  0  0  0  0  0  0
    8.3607   -7.6175    0.0000 S   0  0  0  0  0  0  0  0  0  0  0  0
    7.6462   -7.2050    0.0000 C   0  0  0  0  0  0  0  0  0  0  0  0
    9.7896   -8.4425    0.0000 C   0  0  0  0  0  0  0  0  0  0  0  0
    9.7896   -7.6175    0.0000 C   0  0  0  0  0  0  0  0  0  0  0  0
    9.0752   -7.2050    0.0000 C   0  0  0  0  0  0  0  0  0  0  0  0
   10.5041   -8.8550    0.0000 C   0  0  0  0  0  0  0  0  0  0  0  0
   11.2186   -8.4425    0.0000 C   0  0  0  0  0  0  0  0  0  0  0  0
   11.2186   -7.6175    0.0000 C   0  0  0  0  0  0  0  0  0  0  0  0
   10.5041   -7.2050    0.0000 C   0  0  0  0  0  0  0  0  0  0  0  0
   11.9331   -8.8550    0.0000 O   0  0  0  0  0  0  0  0  0  0  0  0
    1.9305   -8.8550    0.0000 O   0  0  0  0  0  0  0  0  0  0  0  0
    8.3607   -8.4425    0.0000 O   0  0  0  0  0  0  0  0  0  0  0  0
  1  2  2  0  0  0  0
  2  3  1  0  0  0  0
  3  4  2  0  0  0  0
  4  5  1  0  0  0  0
  5  6  2  0  0  0  0
  6  1  1  0  0  0  0
  7  8  1  0  0  0  0
  8  9  2  0  0  0  0
  9 10  1  0  0  0  0
 10  5  1  0  0  0  0
  8 11  1  0  0  0  0
 11 12  2  0  0  0  0
 12 13  1  0  0  0  0
 13 14  2  0  0  0  0
 14  9  1  0  0  0  0
 15 16  1  0  0  0  0
 16 13  1  0  0  0  0
 17 18  2  0  0  0  0
 18 19  1  0  0  0  0
 19 15  1  0  0  0  0
 17 20  1  0  0  0  0
 20 21  2  0  0  0  0
 21 22  1  0  0  0  0
 22 23  2  0  0  0  0
 23 18  1  0  0  0  0
 21 24  1  0  0  0  0
  2 25  1  0  0  0  0
 15 26  2  0  0  0  0
M  END
>  <cdx:fragmentId>
5

$$$$
