98835.cdx
  Mrv1902 05222410242D          

 31 34  0  0  0  0            999 V2000
    1.9162   -7.7138    0.0000 C   0  0  0  0  0  0  0  0  0  0  0  0
    1.9162   -8.5388    0.0000 C   0  0  0  0  0  0  0  0  0  0  0  0
    2.6306   -8.9513    0.0000 C   0  0  0  0  0  0  0  0  0  0  0  0
    3.3451   -8.5388    0.0000 C   0  0  0  0  0  0  0  0  0  0  0  0
    3.3451   -7.7138    0.0000 C   0  0  0  0  0  0  0  0  0  0  0  0
    2.6306   -7.3012    0.0000 C   0  0  0  0  0  0  0  0  0  0  0  0
    4.0596   -8.9513    0.0000 O   0  0  0  0  0  0  0  0  0  0  0  0
    4.7741   -8.5388    0.0000 C   0  0  0  0  0  0  0  0  0  0  0  0
    4.7741   -7.7138    0.0000 C   0  0  0  0  0  0  0  0  0  0  0  0
    4.0596   -7.3012    0.0000 C   0  0  0  0  0  0  0  0  0  0  0  0
    5.4885   -8.9513    0.0000 C   0  0  0  0  0  0  0  0  0  0  0  0
    6.2030   -8.5388    0.0000 C   0  0  0  0  0  0  0  0  0  0  0  0
    6.2030   -7.7138    0.0000 C   0  0  0  0  0  0  0  0  0  0  0  0
    5.4885   -7.3012    0.0000 C   0  0  0  0  0  0  0  0  0  0  0  0
    7.6319   -7.7138    0.0000 C   0  0  0  0  0  0  0  0  0  0  0  0
    6.9175   -7.3012    0.0000 C   0  0  0  0  0  0  0  0  0  0  0  0
    9.0609   -7.7138    0.0000 C   0  0  0  0  0  0  0  0  0  0  0  0
    8.3464   -7.3012    0.0000 C   0  0  0  0  0  0  0  0  0  0  0  0
    1.2017   -8.9513    0.0000 O   0  0  0  0  0  0  0  0  0  0  0  0
    7.6319   -8.5387    0.0000 C   0  0  0  0  0  0  0  0  0  0  0  0
    8.3464   -8.9512    0.0000 C   0  0  0  0  0  0  0  0  0  0  0  0
    9.0609   -8.5387    0.0000 C   0  0  0  0  0  0  0  0  0  0  0  0
    9.7754   -8.9512    0.0000 O   0  0  0  0  0  0  0  0  0  0  0  0
   10.4898   -8.5387    0.0000 C   0  0  0  0  0  0  0  0  0  0  0  0
   10.4898   -7.7138    0.0000 C   0  0  0  0  0  0  0  0  0  0  0  0
    9.7754   -7.3012    0.0000 C   0  0  0  0  0  0  0  0  0  0  0  0
   11.2043   -8.9512    0.0000 C   0  0  0  0  0  0  0  0  0  0  0  0
   11.9188   -8.5387    0.0000 C   0  0  0  0  0  0  0  0  0  0  0  0
   11.9188   -7.7138    0.0000 C   0  0  0  0  0  0  0  0  0  0  0  0
   11.2043   -7.3012    0.0000 C   0  0  0  0  0  0  0  0  0  0  0  0
   12.6332   -8.9512    0.0000 O   0  0  0  0  0  0  0  0  0  0  0  0
  1  2  2  0  0  0  0
  2  3  1  0  0  0  0
  3  4  2  0  0  0  0
  4  5  1  0  0  0  0
  5  6  2  0  0  0  0
  6  1  1  0  0  0  0
  7  8  1  0  0  0  0
  8  9  2  0  0  0  0
  9 10  1  0  0  0  0
 10  5  1  0  0  0  0
  8 11  1  0  0  0  0
 11 12  2  0  0  0  0
 12 13  1  0  0  0  0
 13 14  2  0  0  0  0
 14  9  1  0  0  0  0
 15 16  1  0  0  0  0
 16 13  1  0  0  0  0
 17 18  1  0  0  0  0
 18 15  2  0  0  0  0
  2 19  1  0  0  0  0
 15 20  1  0  0  0  0
 20 21  2  0  0  0  0
 21 22  1  0  0  0  0
 22 17  2  0  0  0  0
 22 23  1  0  0  0  0
 24 25  2  0  0  0  0
 25 26  1  0  0  0  0
 26 17  1  0  0  0  0
 24 27  1  0  0  0  0
 27 28  2  0  0  0  0
 28 29  1  0  0  0  0
 29 30  2  0  0  0  0
 30 25  1  0  0  0  0
 28 31  1  0  0  0  0
M  END
>  <cdx:fragmentId>
5

$$$$
