988340.cdx
  Mrv1902 05222410252D          

 19 20  0  0  0  0            999 V2000
    8.6309   -8.4249    0.0000 C   0  0  1  0  0  0  0  0  0  0  0  0
    9.1251   -9.0855    0.0000 C   0  0  0  0  0  0  0  0  0  0  0  0
    8.6496   -9.7597    0.0000 C   0  0  0  0  0  0  0  0  0  0  0  0
    7.8615   -9.5158    0.0000 C   0  0  1  0  0  0  0  0  0  0  0  0
    7.2237  -10.0391    0.0000 C   0  0  1  0  0  0  0  0  0  0  0  0
    6.4169   -9.8668    0.0000 C   0  0  0  0  0  0  0  0  0  0  0  0
    6.0486   -9.1286    0.0000 C   0  0  0  0  0  0  0  0  0  0  0  0
    6.3961   -8.3804    0.0000 C   0  0  0  0  0  0  0  0  0  0  0  0
    7.1978   -8.1856    0.0000 C   0  0  0  0  0  0  0  0  0  0  0  0
    7.8499   -8.6908    0.0000 C   0  0  2  0  0  0  0  0  0  0  0  0
    9.3454   -8.0124    0.0000 O   0  0  0  0  0  0  0  0  0  0  0  0
    7.0102  -10.8360    0.0000 O   0  0  0  0  0  0  0  0  0  0  0  0
    6.1633   -6.9705    0.0000 C   0  0  0  0  0  0  0  0  0  0  0  0
    5.8727   -7.7426    0.0000 C   0  0  0  0  0  0  0  0  0  0  0  0
    5.0587   -7.8770    0.0000 C   0  0  0  0  0  0  0  0  0  0  0  0
    7.6362  -10.7536    0.0000 C   0  0  0  0  0  0  0  0  0  0  0  0
    8.6309   -7.5999    0.0000 C   0  0  0  0  0  0  0  0  0  0  0  0
    7.8615  -10.3408    0.0000 H   0  0  0  0  0  0  0  0  0  0  0  0
    7.8499   -7.8658    0.0000 H   0  0  0  0  0  0  0  0  0  0  0  0
  1  2  1  0  0  0  0
  2  3  1  0  0  0  0
  3  4  1  0  0  0  0
  4  5  1  0  0  0  0
  5  6  1  0  0  0  0
  6  7  1  0  0  0  0
  7  8  1  0  0  0  0
  8  9  2  0  0  0  0
  9 10  1  0  0  0  0
  1 10  1  0  0  0  0
  4 10  1  0  0  0  0
  1 11  1  1  0  0  0
  5 12  1  6  0  0  0
 13 14  1  0  0  0  0
 14 15  1  0  0  0  0
  8 14  1  0  0  0  0
  5 16  1  0  0  0  0
  1 17  1  0  0  0  0
  4 18  1  6  0  0  0
 10 19  1  1  0  0  0
M  END
>  <cdx:fragmentId>
64335

$$$$
