98831.cdx
  Mrv1902 05222410242D          

 36 39  0  0  0  0            999 V2000
    5.1337   -4.6338    0.0000 C   0  0  0  0  0  0  0  0  0  0  0  0
    5.1337   -5.4588    0.0000 C   0  0  0  0  0  0  0  0  0  0  0  0
    5.8481   -5.8712    0.0000 C   0  0  0  0  0  0  0  0  0  0  0  0
    6.5626   -5.4588    0.0000 C   0  0  0  0  0  0  0  0  0  0  0  0
    6.5626   -4.6338    0.0000 C   0  0  0  0  0  0  0  0  0  0  0  0
    5.8481   -4.2213    0.0000 C   0  0  0  0  0  0  0  0  0  0  0  0
    4.4192   -4.2213    0.0000 O   0  0  0  0  0  0  0  0  0  0  0  0
    7.2771   -5.8712    0.0000 C   0  0  0  0  0  0  0  0  0  0  0  0
    7.2771   -6.6962    0.0000 O   0  0  0  0  0  0  0  0  0  0  0  0
    7.9916   -7.1088    0.0000 C   0  0  0  0  0  0  0  0  0  0  0  0
    7.9916   -7.9337    0.0000 C   0  0  0  0  0  0  0  0  0  0  0  0
    8.7060   -8.3462    0.0000 C   0  0  0  0  0  0  0  0  0  0  0  0
    9.4205   -7.9337    0.0000 C   0  0  0  0  0  0  0  0  0  0  0  0
    9.4205   -7.1088    0.0000 C   0  0  0  0  0  0  0  0  0  0  0  0
    8.7060   -6.6962    0.0000 C   0  0  0  0  0  0  0  0  0  0  0  0
   10.1350   -8.3462    0.0000 C   0  0  0  0  0  0  0  0  0  0  0  0
   10.1350   -9.1712    0.0000 O   0  0  0  0  0  0  0  0  0  0  0  0
   10.8494   -9.5838    0.0000 C   0  0  0  0  0  0  0  0  0  0  0  0
   10.8494  -10.4087    0.0000 C   0  0  0  0  0  0  0  0  0  0  0  0
   11.5639  -10.8212    0.0000 C   0  0  0  0  0  0  0  0  0  0  0  0
   12.2784  -10.4087    0.0000 C   0  0  0  0  0  0  0  0  0  0  0  0
   12.2784   -9.5838    0.0000 C   0  0  0  0  0  0  0  0  0  0  0  0
   11.5639   -9.1713    0.0000 C   0  0  0  0  0  0  0  0  0  0  0  0
   12.9929  -10.8212    0.0000 C   0  0  0  0  0  0  0  0  0  0  0  0
   12.9929  -11.6463    0.0000 O   0  0  0  0  0  0  0  0  0  0  0  0
    3.7047   -4.6338    0.0000 C   0  0  2  0  0  0  0  0  0  0  0  0
    2.9903   -4.2213    0.0000 O   0  0  0  0  0  0  0  0  0  0  0  0
    2.2758   -4.6338    0.0000 C   0  0  1  0  0  0  0  0  0  0  0  0
    2.2758   -5.4588    0.0000 C   0  0  2  0  0  0  0  0  0  0  0  0
    2.9903   -5.8712    0.0000 C   0  0  1  0  0  0  0  0  0  0  0  0
    3.7047   -5.4588    0.0000 C   0  0  1  0  0  0  0  0  0  0  0  0
    1.5613   -4.2213    0.0000 C   0  0  0  0  0  0  0  0  0  0  0  0
    2.9903   -6.6962    0.0000 O   0  0  0  0  0  0  0  0  0  0  0  0
    1.5613   -5.8712    0.0000 O   0  0  0  0  0  0  0  0  0  0  0  0
    4.4192   -5.8712    0.0000 O   0  0  0  0  0  0  0  0  0  0  0  0
    0.8469   -4.6338    0.0000 O   0  0  0  0  0  0  0  0  0  0  0  0
  1  2  2  0  0  0  0
  2  3  1  0  0  0  0
  3  4  2  0  0  0  0
  4  5  1  0  0  0  0
  5  6  2  0  0  0  0
  6  1  1  0  0  0  0
  1  7  1  0  0  0  0
  4  8  1  0  0  0  0
  8  9  1  0  0  0  0
  9 10  1  0  0  0  0
 10 11  2  0  0  0  0
 11 12  1  0  0  0  0
 12 13  2  0  0  0  0
 13 14  1  0  0  0  0
 14 15  2  0  0  0  0
 15 10  1  0  0  0  0
 13 16  1  0  0  0  0
 16 17  1  0  0  0  0
 17 18  1  0  0  0  0
 18 19  2  0  0  0  0
 19 20  1  0  0  0  0
 20 21  2  0  0  0  0
 21 22  1  0  0  0  0
 22 23  2  0  0  0  0
 23 18  1  0  0  0  0
 21 24  1  0  0  0  0
 24 25  1  0  0  0  0
 26  7  1  1  0  0  0
 26 27  1  0  0  0  0
 27 28  1  0  0  0  0
 28 29  1  0  0  0  0
 29 30  1  0  0  0  0
 30 31  1  0  0  0  0
 31 26  1  0  0  0  0
 28 32  1  1  0  0  0
 30 33  1  1  0  0  0
 29 34  1  6  0  0  0
 31 35  1  6  0  0  0
 32 36  1  0  0  0  0
M  END
>  <cdx:fragmentId>
5

$$$$
