98830.cdx
  Mrv1902 05222410242D          

 34 37  0  0  0  0            999 V2000
    5.6833   -7.9978    0.0000 O   0  0  0  0  0  0  0  0  0  0  0  0
    4.9685   -8.4097    0.0000 C   0  0  2  0  0  0  0  0  0  0  0  0
    4.2544   -7.9966    0.0000 O   0  0  0  0  0  0  0  0  0  0  0  0
    3.5396   -8.4084    0.0000 C   0  0  1  0  0  0  0  0  0  0  0  0
    3.5388   -9.2334    0.0000 C   0  0  2  0  0  0  0  0  0  0  0  0
    4.2529   -9.6466    0.0000 C   0  0  1  0  0  0  0  0  0  0  0  0
    4.9678   -9.2347    0.0000 C   0  0  1  0  0  0  0  0  0  0  0  0
    2.8255   -7.9953    0.0000 C   0  0  0  0  0  0  0  0  0  0  0  0
    4.2522  -10.4716    0.0000 O   0  0  0  0  0  0  0  0  0  0  0  0
    5.6819   -9.6478    0.0000 O   0  0  0  0  0  0  0  0  0  0  0  0
    2.8240   -9.6453    0.0000 O   0  0  0  0  0  0  0  0  0  0  0  0
    2.1106   -8.4072    0.0000 O   0  0  0  0  0  0  0  0  0  0  0  0
    1.3965   -7.9940    0.0000 C   0  0  0  0  0  0  0  0  0  0  0  0
    0.6817   -8.4059    0.0000 O   0  0  0  0  0  0  0  0  0  0  0  0
    1.3972   -7.1690    0.0000 O   0  0  0  0  0  0  0  0  0  0  0  0
    7.1111  -10.4735    0.0000 O   0  0  0  0  0  0  0  0  0  0  0  0
    8.5400  -10.4742    0.0000 O   0  0  0  0  0  0  0  0  0  0  0  0
   12.1142   -6.7634    0.0000 O   0  0  0  0  0  0  0  0  0  0  0  0
   11.3991   -8.0006    0.0000 C   0  0  0  0  0  0  0  0  0  0  0  0
   11.3995   -7.1756    0.0000 C   0  0  0  0  0  0  0  0  0  0  0  0
   10.6852   -6.7627    0.0000 C   0  0  0  0  0  0  0  0  0  0  0  0
    9.9706   -7.1749    0.0000 C   0  0  0  0  0  0  0  0  0  0  0  0
   10.6844   -8.4127    0.0000 C   0  0  0  0  0  0  0  0  0  0  0  0
    9.9702   -7.9999    0.0000 C   0  0  0  0  0  0  0  0  0  0  0  0
    8.5404   -9.6492    0.0000 C   0  0  0  0  0  0  0  0  0  0  0  0
    9.2551   -9.2370    0.0000 C   0  0  0  0  0  0  0  0  0  0  0  0
    9.2555   -8.4120    0.0000 C   0  0  2  0  0  0  0  0  0  0  0  0
    8.5412   -7.9992    0.0000 O   0  0  0  0  0  0  0  0  0  0  0  0
    7.8262   -9.2364    0.0000 C   0  0  0  0  0  0  0  0  0  0  0  0
    7.8265   -8.4114    0.0000 C   0  0  0  0  0  0  0  0  0  0  0  0
    7.1123   -7.9985    0.0000 C   0  0  0  0  0  0  0  0  0  0  0  0
    6.3976   -8.4107    0.0000 C   0  0  0  0  0  0  0  0  0  0  0  0
    6.3972   -9.2357    0.0000 C   0  0  0  0  0  0  0  0  0  0  0  0
    7.1115   -9.6485    0.0000 C   0  0  0  0  0  0  0  0  0  0  0  0
  2  1  1  1  0  0  0
  2  3  1  0  0  0  0
  3  4  1  0  0  0  0
  4  5  1  0  0  0  0
  5  6  1  0  0  0  0
  6  7  1  0  0  0  0
  7  2  1  0  0  0  0
  4  8  1  1  0  0  0
  6  9  1  1  0  0  0
  7 10  1  6  0  0  0
  5 11  1  6  0  0  0
  8 12  1  0  0  0  0
 12 13  1  0  0  0  0
 13 14  1  0  0  0  0
 32  1  1  0  0  0  0
 13 15  2  0  0  0  0
 34 16  1  0  0  0  0
 25 17  2  0  0  0  0
 20 18  1  0  0  0  0
 19 23  2  0  0  0  0
 20 19  1  0  0  0  0
 21 20  2  0  0  0  0
 22 21  1  0  0  0  0
 24 22  2  0  0  0  0
 24 23  1  0  0  0  0
 27 24  1  6  0  0  0
 25 29  1  0  0  0  0
 26 25  1  0  0  0  0
 27 26  1  0  0  0  0
 28 27  1  0  0  0  0
 30 28  1  0  0  0  0
 29 34  2  0  0  0  0
 30 29  1  0  0  0  0
 31 30  2  0  0  0  0
 32 31  1  0  0  0  0
 33 32  2  0  0  0  0
 34 33  1  0  0  0  0
M  END
>  <cdx:fragmentId>
5

$$$$
