98844.cdx
  Mrv1902 05222410262D          

 44 48  0  0  0  0            999 V2000
    2.8945   -9.9278    0.0000 C   0  0  0  0  0  0  0  0  0  0  0  0
    2.8945  -10.7528    0.0000 C   0  0  0  0  0  0  0  0  0  0  0  0
    3.6090  -11.1653    0.0000 C   0  0  1  0  0  0  0  0  0  0  0  0
    4.3235  -10.7528    0.0000 C   0  0  0  0  0  0  0  0  0  0  0  0
    4.3235   -9.9278    0.0000 C   0  0  1  0  0  0  0  0  0  0  0  0
    3.6090   -9.5153    0.0000 C   0  0  0  0  0  0  0  0  0  0  0  0
    5.0380  -11.1653    0.0000 C   0  0  0  0  0  0  0  0  0  0  0  0
    5.7524  -10.7528    0.0000 C   0  0  0  0  0  0  0  0  0  0  0  0
    5.7524   -9.9278    0.0000 C   0  0  0  0  0  0  0  0  0  0  0  0
    5.0380   -9.5153    0.0000 C   0  0  1  0  0  0  0  0  0  0  0  0
    6.4669   -9.5153    0.0000 C   0  0  1  0  0  0  0  0  0  0  0  0
    6.4669   -8.6903    0.0000 C   0  0  2  0  0  0  0  0  0  0  0  0
    5.7524   -8.2778    0.0000 C   0  0  0  0  0  0  0  0  0  0  0  0
    5.0380   -8.6903    0.0000 C   0  0  0  0  0  0  0  0  0  0  0  0
    7.8958   -9.5153    0.0000 C   0  0  0  0  0  0  0  0  0  0  0  0
    7.8958   -8.6903    0.0000 C   0  0  0  0  0  0  0  0  0  0  0  0
    7.1814   -8.2778    0.0000 C   0  0  0  0  0  0  0  0  0  0  0  0
    4.3235   -8.2778    0.0000 O   0  0  0  0  0  0  0  0  0  0  0  0
    7.1814   -7.4528    0.0000 C   0  0  2  0  0  0  0  0  0  0  0  0
    6.4669   -7.0403    0.0000 C   0  0  0  0  0  0  0  0  0  0  0  0
    7.8958   -7.0403    0.0000 C   0  0  0  0  0  0  0  0  0  0  0  0
    8.6103   -7.4528    0.0000 C   0  0  0  0  0  0  0  0  0  0  0  0
    9.3248   -7.0403    0.0000 C   0  0  2  0  0  0  0  0  0  0  0  0
   10.0393   -7.4528    0.0000 C   0  0  0  0  0  0  0  0  0  0  0  0
    9.3248   -6.2153    0.0000 O   0  0  0  0  0  0  0  0  0  0  0  0
   10.7537   -7.0403    0.0000 C   0  0  0  0  0  0  0  0  0  0  0  0
   10.0393   -8.2778    0.0000 C   0  0  0  0  0  0  0  0  0  0  0  0
    3.1965  -11.8797    0.0000 C   0  0  0  0  0  0  0  0  0  0  0  0
    5.0380  -10.3403    0.0000 C   0  0  0  0  0  0  0  0  0  0  0  0
    6.4669   -7.8653    0.0000 C   0  0  0  0  0  0  0  0  0  0  0  0
    6.6804  -10.3122    0.0000 C   0  0  0  0  0  0  0  0  0  0  0  0
    4.0215  -11.8797    0.0000 C   0  0  0  0  0  0  0  0  0  0  0  0
    4.3235   -9.1028    0.0000 H   0  0  0  0  0  0  0  0  0  0  0  0
   10.9930   -4.7833    0.0000 C   0  0  2  0  0  0  0  0  0  0  0  0
   10.5813   -4.0684    0.0000 C   0  0  2  0  0  0  0  0  0  0  0  0
    9.7563   -4.0675    0.0000 C   0  0  1  0  0  0  0  0  0  0  0  0
    9.3430   -4.7815    0.0000 C   0  0  2  0  0  0  0  0  0  0  0  0
    9.7547   -5.4964    0.0000 C   0  0  1  0  0  0  0  0  0  0  0  0
   10.5797   -5.4973    0.0000 O   0  0  0  0  0  0  0  0  0  0  0  0
   11.8180   -4.7842    0.0000 C   0  0  0  0  0  0  0  0  0  0  0  0
    9.3445   -3.3526    0.0000 O   0  0  0  0  0  0  0  0  0  0  0  0
   10.9945   -3.3544    0.0000 O   0  0  0  0  0  0  0  0  0  0  0  0
    8.5180   -4.7806    0.0000 O   0  0  0  0  0  0  0  0  0  0  0  0
   12.2313   -4.0702    0.0000 O   0  0  0  0  0  0  0  0  0  0  0  0
  1  2  1  0  0  0  0
  2  3  1  0  0  0  0
  3  4  1  0  0  0  0
  4  5  1  0  0  0  0
  5  6  1  0  0  0  0
  6  1  1  0  0  0  0
  4  7  2  0  0  0  0
  7  8  1  0  0  0  0
  8  9  1  0  0  0  0
  9 10  1  0  0  0  0
 10  5  1  0  0  0  0
  9 11  1  0  0  0  0
 11 12  1  0  0  0  0
 12 13  1  0  0  0  0
 13 14  1  0  0  0  0
 14 10  1  0  0  0  0
 15 16  1  0  0  0  0
 16 17  1  0  0  0  0
 17 12  1  0  0  0  0
 11 15  1  0  0  0  0
 14 18  1  0  0  0  0
 17 19  1  0  0  0  0
 19 20  1  6  0  0  0
 19 21  1  0  0  0  0
 21 22  1  0  0  0  0
 22 23  1  0  0  0  0
 23 24  1  0  0  0  0
 23 25  1  1  0  0  0
 24 26  1  0  0  0  0
 24 27  1  0  0  0  0
  3 28  1  1  0  0  0
 10 29  1  1  0  0  0
 12 30  1  1  0  0  0
 11 31  1  6  0  0  0
  3 32  1  6  0  0  0
  5 33  1  6  0  0  0
 34 35  1  0  0  0  0
 35 36  1  0  0  0  0
 36 37  1  0  0  0  0
 37 38  1  0  0  0  0
 38 39  1  0  0  0  0
 39 34  1  0  0  0  0
 34 40  1  1  0  0  0
 36 41  1  1  0  0  0
 35 42  1  6  0  0  0
 37 43  1  6  0  0  0
 40 44  1  0  0  0  0
 38 25  1  1  0  0  0
M  END
>  <cdx:fragmentId>
5

$$$$
