98847.cdx
  Mrv1902 05222410262D          

 56 61  0  0  0  0            999 V2000
    4.5033  -10.1065    0.0000 C   0  0  0  0  0  0  0  0  0  0  0  0
    4.5033  -10.9315    0.0000 C   0  0  1  0  0  0  0  0  0  0  0  0
    5.2178  -11.3440    0.0000 C   0  0  1  0  0  0  0  0  0  0  0  0
    5.9322  -10.9315    0.0000 C   0  0  0  0  0  0  0  0  0  0  0  0
    5.9322  -10.1065    0.0000 C   0  0  1  0  0  0  0  0  0  0  0  0
    5.2178   -9.6940    0.0000 C   0  0  0  0  0  0  0  0  0  0  0  0
    6.6467  -11.3440    0.0000 C   0  0  0  0  0  0  0  0  0  0  0  0
    7.3612  -10.9315    0.0000 C   0  0  0  0  0  0  0  0  0  0  0  0
    7.3612  -10.1065    0.0000 C   0  0  0  0  0  0  0  0  0  0  0  0
    6.6467   -9.6940    0.0000 C   0  0  1  0  0  0  0  0  0  0  0  0
    8.0756   -9.6940    0.0000 C   0  0  1  0  0  0  0  0  0  0  0  0
    8.0756   -8.8690    0.0000 C   0  0  2  0  0  0  0  0  0  0  0  0
    7.3612   -8.4565    0.0000 C   0  0  0  0  0  0  0  0  0  0  0  0
    6.6467   -8.8690    0.0000 C   0  0  0  0  0  0  0  0  0  0  0  0
    9.5046   -9.6940    0.0000 C   0  0  0  0  0  0  0  0  0  0  0  0
    9.5046   -8.8690    0.0000 C   0  0  0  0  0  0  0  0  0  0  0  0
    8.7901   -8.4565    0.0000 C   0  0  0  0  0  0  0  0  0  0  0  0
    5.9322   -8.4565    0.0000 O   0  0  0  0  0  0  0  0  0  0  0  0
    8.7901   -7.6315    0.0000 C   0  0  2  0  0  0  0  0  0  0  0  0
    8.0756   -7.2190    0.0000 C   0  0  0  0  0  0  0  0  0  0  0  0
    9.5046   -7.2190    0.0000 C   0  0  0  0  0  0  0  0  0  0  0  0
   10.2191   -7.6315    0.0000 C   0  0  0  0  0  0  0  0  0  0  0  0
   10.9335   -7.2190    0.0000 C   0  0  2  0  0  0  0  0  0  0  0  0
   11.6480   -7.6315    0.0000 C   0  0  0  0  0  0  0  0  0  0  0  0
   10.9335   -6.3940    0.0000 O   0  0  0  0  0  0  0  0  0  0  0  0
   12.3625   -7.2190    0.0000 C   0  0  0  0  0  0  0  0  0  0  0  0
   11.6480   -8.4565    0.0000 C   0  0  0  0  0  0  0  0  0  0  0  0
    3.7888  -11.3440    0.0000 O   0  0  0  0  0  0  0  0  0  0  0  0
    4.8053  -12.0585    0.0000 C   0  0  0  0  0  0  0  0  0  0  0  0
    6.6467  -10.5190    0.0000 C   0  0  0  0  0  0  0  0  0  0  0  0
    8.0756   -8.0440    0.0000 C   0  0  0  0  0  0  0  0  0  0  0  0
    8.2892  -10.4909    0.0000 C   0  0  0  0  0  0  0  0  0  0  0  0
    5.6303  -12.0585    0.0000 C   0  0  0  0  0  0  0  0  0  0  0  0
    5.9322   -9.2815    0.0000 H   0  0  0  0  0  0  0  0  0  0  0  0
   12.5789   -4.9466    0.0000 C   0  0  2  0  0  0  0  0  0  0  0  0
   12.1629   -4.2341    0.0000 C   0  0  2  0  0  0  0  0  0  0  0  0
   11.3380   -4.2381    0.0000 C   0  0  1  0  0  0  0  0  0  0  0  0
   10.9289   -4.9546    0.0000 C   0  0  2  0  0  0  0  0  0  0  0  0
   11.3448   -5.6670    0.0000 C   0  0  1  0  0  0  0  0  0  0  0  0
   12.1698   -5.6631    0.0000 O   0  0  0  0  0  0  0  0  0  0  0  0
   13.4039   -4.9427    0.0000 C   0  0  0  0  0  0  0  0  0  0  0  0
   10.9220   -3.5256    0.0000 O   0  0  0  0  0  0  0  0  0  0  0  0
   12.5720   -3.5177    0.0000 O   0  0  0  0  0  0  0  0  0  0  0  0
   10.1039   -4.9585    0.0000 O   0  0  0  0  0  0  0  0  0  0  0  0
   13.8129   -4.2262    0.0000 O   0  0  0  0  0  0  0  0  0  0  0  0
    2.3810   -9.6750    0.0000 C   0  0  2  0  0  0  0  0  0  0  0  0
    1.6633  -10.0819    0.0000 C   0  0  2  0  0  0  0  0  0  0  0  0
    1.6568  -10.9068    0.0000 C   0  0  1  0  0  0  0  0  0  0  0  0
    2.3680  -11.3249    0.0000 C   0  0  2  0  0  0  0  0  0  0  0  0
    3.0857  -10.9181    0.0000 C   0  0  1  0  0  0  0  0  0  0  0  0
    3.0922  -10.0931    0.0000 O   0  0  0  0  0  0  0  0  0  0  0  0
    2.3875   -8.8500    0.0000 C   0  0  0  0  0  0  0  0  0  0  0  0
    0.9391  -11.3137    0.0000 O   0  0  0  0  0  0  0  0  0  0  0  0
    0.9521   -9.6638    0.0000 O   0  0  0  0  0  0  0  0  0  0  0  0
    2.3615  -12.1499    0.0000 O   0  0  0  0  0  0  0  0  0  0  0  0
    1.6763   -8.4319    0.0000 O   0  0  0  0  0  0  0  0  0  0  0  0
  1  2  1  0  0  0  0
  2  3  1  0  0  0  0
  3  4  1  0  0  0  0
  4  5  1  0  0  0  0
  5  6  1  0  0  0  0
  6  1  1  0  0  0  0
  4  7  2  0  0  0  0
  7  8  1  0  0  0  0
  8  9  1  0  0  0  0
  9 10  1  0  0  0  0
 10  5  1  0  0  0  0
  9 11  1  0  0  0  0
 11 12  1  0  0  0  0
 12 13  1  0  0  0  0
 13 14  1  0  0  0  0
 14 10  1  0  0  0  0
 15 16  1  0  0  0  0
 16 17  1  0  0  0  0
 17 12  1  0  0  0  0
 11 15  1  0  0  0  0
 14 18  2  0  0  0  0
 17 19  1  0  0  0  0
 19 20  1  6  0  0  0
 19 21  1  0  0  0  0
 21 22  1  0  0  0  0
 22 23  1  0  0  0  0
 23 24  1  0  0  0  0
 23 25  1  1  0  0  0
 24 26  1  0  0  0  0
 24 27  1  0  0  0  0
  2 28  1  1  0  0  0
  3 29  1  1  0  0  0
 10 30  1  1  0  0  0
 12 31  1  1  0  0  0
 11 32  1  6  0  0  0
  3 33  1  6  0  0  0
  5 34  1  6  0  0  0
 35 36  1  0  0  0  0
 36 37  1  0  0  0  0
 37 38  1  0  0  0  0
 38 39  1  0  0  0  0
 39 40  1  0  0  0  0
 40 35  1  0  0  0  0
 35 41  1  1  0  0  0
 37 42  1  1  0  0  0
 36 43  1  6  0  0  0
 38 44  1  6  0  0  0
 41 45  1  0  0  0  0
 39 25  1  1  0  0  0
 46 47  1  0  0  0  0
 47 48  1  0  0  0  0
 48 49  1  0  0  0  0
 49 50  1  0  0  0  0
 50 51  1  0  0  0  0
 51 46  1  0  0  0  0
 46 52  1  1  0  0  0
 48 53  1  1  0  0  0
 47 54  1  6  0  0  0
 49 55  1  6  0  0  0
 52 56  1  0  0  0  0
 50 28  1  1  0  0  0
M  END
>  <cdx:fragmentId>
5

$$$$
