98845.cdx
  Mrv1902 05222410262D          

 45 49  0  0  0  0            999 V2000
    5.3145   -9.0890    0.0000 C   0  0  0  0  0  0  0  0  0  0  0  0
    5.3145   -9.9140    0.0000 C   0  0  1  0  0  0  0  0  0  0  0  0
    6.0290  -10.3265    0.0000 C   0  0  1  0  0  0  0  0  0  0  0  0
    6.7435   -9.9140    0.0000 C   0  0  0  0  0  0  0  0  0  0  0  0
    6.7435   -9.0890    0.0000 C   0  0  1  0  0  0  0  0  0  0  0  0
    6.0290   -8.6765    0.0000 C   0  0  0  0  0  0  0  0  0  0  0  0
    7.4580  -10.3265    0.0000 C   0  0  0  0  0  0  0  0  0  0  0  0
    8.1724   -9.9140    0.0000 C   0  0  0  0  0  0  0  0  0  0  0  0
    8.1724   -9.0890    0.0000 C   0  0  0  0  0  0  0  0  0  0  0  0
    7.4580   -8.6765    0.0000 C   0  0  1  0  0  0  0  0  0  0  0  0
    8.8869   -8.6765    0.0000 C   0  0  1  0  0  0  0  0  0  0  0  0
    8.8869   -7.8515    0.0000 C   0  0  2  0  0  0  0  0  0  0  0  0
    8.1724   -7.4390    0.0000 C   0  0  0  0  0  0  0  0  0  0  0  0
    7.4580   -7.8515    0.0000 C   0  0  0  0  0  0  0  0  0  0  0  0
   10.3158   -8.6765    0.0000 C   0  0  0  0  0  0  0  0  0  0  0  0
   10.3158   -7.8515    0.0000 C   0  0  0  0  0  0  0  0  0  0  0  0
    9.6014   -7.4390    0.0000 C   0  0  0  0  0  0  0  0  0  0  0  0
    6.7435   -7.4390    0.0000 O   0  0  0  0  0  0  0  0  0  0  0  0
    9.6014   -6.6140    0.0000 C   0  0  2  0  0  0  0  0  0  0  0  0
    8.8869   -6.2015    0.0000 C   0  0  0  0  0  0  0  0  0  0  0  0
   10.3158   -6.2015    0.0000 C   0  0  0  0  0  0  0  0  0  0  0  0
   11.0303   -6.6140    0.0000 C   0  0  0  0  0  0  0  0  0  0  0  0
   11.7448   -6.2015    0.0000 C   0  0  1  0  0  0  0  0  0  0  0  0
   12.4593   -6.6140    0.0000 C   0  0  0  0  0  0  0  0  0  0  0  0
   11.7448   -5.3765    0.0000 H   0  0  0  0  0  0  0  0  0  0  0  0
   13.1737   -6.2015    0.0000 C   0  0  0  0  0  0  0  0  0  0  0  0
   12.4593   -7.4390    0.0000 C   0  0  0  0  0  0  0  0  0  0  0  0
    5.6165  -11.0410    0.0000 C   0  0  0  0  0  0  0  0  0  0  0  0
    7.4580   -9.5015    0.0000 C   0  0  0  0  0  0  0  0  0  0  0  0
    8.8869   -7.0265    0.0000 C   0  0  0  0  0  0  0  0  0  0  0  0
    9.1004   -9.4734    0.0000 C   0  0  0  0  0  0  0  0  0  0  0  0
    6.4415  -11.0410    0.0000 C   0  0  0  0  0  0  0  0  0  0  0  0
    6.7435   -8.2640    0.0000 H   0  0  0  0  0  0  0  0  0  0  0  0
    4.6129  -10.3226    0.0000 O   0  0  0  0  0  0  0  0  0  0  0  0
    3.1711   -8.6629    0.0000 C   0  0  2  0  0  0  0  0  0  0  0  0
    2.4586   -9.0788    0.0000 C   0  0  2  0  0  0  0  0  0  0  0  0
    2.4626   -9.9038    0.0000 C   0  0  1  0  0  0  0  0  0  0  0  0
    3.1791  -10.3128    0.0000 C   0  0  2  0  0  0  0  0  0  0  0  0
    3.8915   -9.8969    0.0000 C   0  0  1  0  0  0  0  0  0  0  0  0
    3.8876   -9.0719    0.0000 O   0  0  0  0  0  0  0  0  0  0  0  0
    3.1672   -7.8379    0.0000 C   0  0  0  0  0  0  0  0  0  0  0  0
    1.7501  -10.3197    0.0000 O   0  0  0  0  0  0  0  0  0  0  0  0
    1.7422   -8.6697    0.0000 O   0  0  0  0  0  0  0  0  0  0  0  0
    3.1830  -11.1378    0.0000 O   0  0  0  0  0  0  0  0  0  0  0  0
    2.4507   -7.4288    0.0000 O   0  0  0  0  0  0  0  0  0  0  0  0
  1  2  1  0  0  0  0
  2  3  1  0  0  0  0
  3  4  1  0  0  0  0
  4  5  1  0  0  0  0
  5  6  1  0  0  0  0
  6  1  1  0  0  0  0
  4  7  2  0  0  0  0
  7  8  1  0  0  0  0
  8  9  1  0  0  0  0
  9 10  1  0  0  0  0
 10  5  1  0  0  0  0
  9 11  1  0  0  0  0
 11 12  1  0  0  0  0
 12 13  1  0  0  0  0
 13 14  1  0  0  0  0
 14 10  1  0  0  0  0
 15 16  1  0  0  0  0
 16 17  1  0  0  0  0
 17 12  1  0  0  0  0
 11 15  1  0  0  0  0
 14 18  1  0  0  0  0
 17 19  1  0  0  0  0
 19 20  1  6  0  0  0
 19 21  1  0  0  0  0
 21 22  1  0  0  0  0
 22 23  1  0  0  0  0
 23 24  1  0  0  0  0
 23 25  1  1  0  0  0
 24 26  1  0  0  0  0
 24 27  1  0  0  0  0
  3 28  1  1  0  0  0
 10 29  1  1  0  0  0
 12 30  1  1  0  0  0
 11 31  1  6  0  0  0
  3 32  1  6  0  0  0
  5 33  1  6  0  0  0
 35 36  1  0  0  0  0
 36 37  1  0  0  0  0
 37 38  1  0  0  0  0
 38 39  1  0  0  0  0
 39 40  1  0  0  0  0
 40 35  1  0  0  0  0
 35 41  1  1  0  0  0
 37 42  1  1  0  0  0
 36 43  1  6  0  0  0
 38 44  1  6  0  0  0
 41 45  1  0  0  0  0
 39 34  1  1  0  0  0
  2 34  1  1  0  0  0
M  END
>  <cdx:fragmentId>
5

$$$$
