98846.cdx
  Mrv1902 05222410272D          

 56 61  0  0  0  0            999 V2000
    1.0245  -11.9353    0.0000 C   0  0  0  0  0  0  0  0  0  0  0  0
    1.0245  -12.7603    0.0000 C   0  0  2  0  0  0  0  0  0  0  0  0
    1.7390  -13.1728    0.0000 C   0  0  1  0  0  0  0  0  0  0  0  0
    2.4535  -12.7603    0.0000 C   0  0  0  0  0  0  0  0  0  0  0  0
    2.4535  -11.9353    0.0000 C   0  0  1  0  0  0  0  0  0  0  0  0
    1.7390  -11.5228    0.0000 C   0  0  0  0  0  0  0  0  0  0  0  0
    3.1680  -13.1728    0.0000 C   0  0  0  0  0  0  0  0  0  0  0  0
    3.8824  -12.7603    0.0000 C   0  0  0  0  0  0  0  0  0  0  0  0
    3.8824  -11.9353    0.0000 C   0  0  0  0  0  0  0  0  0  0  0  0
    3.1680  -11.5228    0.0000 C   0  0  1  0  0  0  0  0  0  0  0  0
    4.5969  -11.5228    0.0000 C   0  0  1  0  0  0  0  0  0  0  0  0
    4.5969  -10.6978    0.0000 C   0  0  2  0  0  0  0  0  0  0  0  0
    3.8824  -10.2853    0.0000 C   0  0  0  0  0  0  0  0  0  0  0  0
    3.1680  -10.6978    0.0000 C   0  0  0  0  0  0  0  0  0  0  0  0
    6.0258  -11.5228    0.0000 C   0  0  0  0  0  0  0  0  0  0  0  0
    6.0258  -10.6978    0.0000 C   0  0  0  0  0  0  0  0  0  0  0  0
    5.3114  -10.2853    0.0000 C   0  0  0  0  0  0  0  0  0  0  0  0
    2.4535  -10.2853    0.0000 O   0  0  0  0  0  0  0  0  0  0  0  0
    5.3114   -9.4603    0.0000 C   0  0  2  0  0  0  0  0  0  0  0  0
    4.5969   -9.0478    0.0000 C   0  0  0  0  0  0  0  0  0  0  0  0
    6.0258   -9.0478    0.0000 C   0  0  0  0  0  0  0  0  0  0  0  0
    6.7403   -9.4603    0.0000 C   0  0  0  0  0  0  0  0  0  0  0  0
    7.4548   -9.0478    0.0000 C   0  0  2  0  0  0  0  0  0  0  0  0
    8.1693   -9.4603    0.0000 C   0  0  0  0  0  0  0  0  0  0  0  0
    7.4548   -8.2228    0.0000 O   0  0  0  0  0  0  0  0  0  0  0  0
    8.8837   -9.0478    0.0000 C   0  0  0  0  0  0  0  0  0  0  0  0
    8.1693  -10.2853    0.0000 C   0  0  0  0  0  0  0  0  0  0  0  0
    0.3101  -13.1728    0.0000 H   0  0  0  0  0  0  0  0  0  0  0  0
    1.3265  -13.8872    0.0000 C   0  0  0  0  0  0  0  0  0  0  0  0
    3.1680  -12.3478    0.0000 C   0  0  0  0  0  0  0  0  0  0  0  0
    4.5969   -9.8728    0.0000 C   0  0  0  0  0  0  0  0  0  0  0  0
    4.8104  -12.3197    0.0000 C   0  0  0  0  0  0  0  0  0  0  0  0
    2.1515  -13.8872    0.0000 C   0  0  0  0  0  0  0  0  0  0  0  0
    2.4535  -11.1103    0.0000 H   0  0  0  0  0  0  0  0  0  0  0  0
    9.1001   -6.7754    0.0000 C   0  0  2  0  0  0  0  0  0  0  0  0
    8.6842   -6.0629    0.0000 C   0  0  2  0  0  0  0  0  0  0  0  0
    7.8592   -6.0669    0.0000 C   0  0  1  0  0  0  0  0  0  0  0  0
    7.4502   -6.7833    0.0000 C   0  0  2  0  0  0  0  0  0  0  0  0
    7.8661   -7.4958    0.0000 C   0  0  1  0  0  0  0  0  0  0  0  0
    8.6911   -7.4918    0.0000 O   0  0  0  0  0  0  0  0  0  0  0  0
    9.9251   -6.7714    0.0000 C   0  0  0  0  0  0  0  0  0  0  0  0
    7.4433   -5.3544    0.0000 O   0  0  0  0  0  0  0  0  0  0  0  0
    9.0933   -5.3464    0.0000 O   0  0  0  0  0  0  0  0  0  0  0  0
    6.6252   -6.7873    0.0000 O   0  0  0  0  0  0  0  0  0  0  0  0
   10.3342   -6.0550    0.0000 O   0  0  0  0  0  0  0  0  0  0  0  0
   12.4918   -5.6526    0.0000 C   0  0  2  0  0  0  0  0  0  0  0  0
   12.4876   -4.8276    0.0000 C   0  0  2  0  0  0  0  0  0  0  0  0
   11.7711   -4.4187    0.0000 C   0  0  1  0  0  0  0  0  0  0  0  0
   11.0587   -4.8347    0.0000 C   0  0  2  0  0  0  0  0  0  0  0  0
   11.0629   -5.6597    0.0000 C   0  0  1  0  0  0  0  0  0  0  0  0
   11.7794   -6.0687    0.0000 O   0  0  0  0  0  0  0  0  0  0  0  0
   13.2083   -6.0615    0.0000 C   0  0  0  0  0  0  0  0  0  0  0  0
   11.7670   -3.5937    0.0000 O   0  0  0  0  0  0  0  0  0  0  0  0
   13.2000   -4.4115    0.0000 O   0  0  0  0  0  0  0  0  0  0  0  0
   10.3422   -4.4258    0.0000 O   0  0  0  0  0  0  0  0  0  0  0  0
   13.9207   -5.6454    0.0000 O   0  0  0  0  0  0  0  0  0  0  0  0
  1  2  1  0  0  0  0
  2  3  1  0  0  0  0
  3  4  1  0  0  0  0
  4  5  1  0  0  0  0
  5  6  1  0  0  0  0
  6  1  1  0  0  0  0
  4  7  2  0  0  0  0
  7  8  1  0  0  0  0
  8  9  1  0  0  0  0
  9 10  1  0  0  0  0
 10  5  1  0  0  0  0
  9 11  1  0  0  0  0
 11 12  1  0  0  0  0
 12 13  1  0  0  0  0
 13 14  1  0  0  0  0
 14 10  1  0  0  0  0
 15 16  1  0  0  0  0
 16 17  1  0  0  0  0
 17 12  1  0  0  0  0
 11 15  1  0  0  0  0
 14 18  2  0  0  0  0
 17 19  1  0  0  0  0
 19 20  1  6  0  0  0
 19 21  1  0  0  0  0
 21 22  1  0  0  0  0
 22 23  1  0  0  0  0
 23 24  1  0  0  0  0
 23 25  1  1  0  0  0
 24 26  1  0  0  0  0
 24 27  1  0  0  0  0
  2 28  1  1  0  0  0
  3 29  1  1  0  0  0
 10 30  1  1  0  0  0
 12 31  1  1  0  0  0
 11 32  1  6  0  0  0
  3 33  1  6  0  0  0
  5 34  1  6  0  0  0
 35 36  1  0  0  0  0
 36 37  1  0  0  0  0
 37 38  1  0  0  0  0
 38 39  1  0  0  0  0
 39 40  1  0  0  0  0
 40 35  1  0  0  0  0
 35 41  1  1  0  0  0
 37 42  1  1  0  0  0
 36 43  1  6  0  0  0
 38 44  1  6  0  0  0
 41 45  1  0  0  0  0
 46 47  1  0  0  0  0
 47 48  1  0  0  0  0
 48 49  1  0  0  0  0
 49 50  1  0  0  0  0
 50 51  1  0  0  0  0
 51 46  1  0  0  0  0
 46 52  1  1  0  0  0
 48 53  1  1  0  0  0
 47 54  1  6  0  0  0
 49 55  1  6  0  0  0
 52 56  1  0  0  0  0
 39 25  1  1  0  0  0
 50 45  1  1  0  0  0
M  END
>  <cdx:fragmentId>
5

$$$$
