98842.cdx
  Mrv1902 05222410272D          

 21 22  0  0  0  0            999 V2000
    3.7312   -7.9063    0.0000 C   0  0  0  0  0  0  0  0  0  0  0  0
    3.7312   -8.7313    0.0000 C   0  0  0  0  0  0  0  0  0  0  0  0
    4.4456   -9.1438    0.0000 C   0  0  0  0  0  0  0  0  0  0  0  0
    5.1601   -8.7313    0.0000 C   0  0  0  0  0  0  0  0  0  0  0  0
    5.1601   -7.9063    0.0000 C   0  0  0  0  0  0  0  0  0  0  0  0
    4.4456   -7.4937    0.0000 C   0  0  0  0  0  0  0  0  0  0  0  0
    5.8746   -7.4937    0.0000 C   0  0  1  0  0  0  0  0  0  0  0  0
    6.5891   -7.9063    0.0000 C   0  0  0  0  0  0  0  0  0  0  0  0
    5.8746   -6.6688    0.0000 O   0  0  0  0  0  0  0  0  0  0  0  0
    7.3035   -7.4937    0.0000 O   0  0  0  0  0  0  0  0  0  0  0  0
    8.7297   -9.1515    0.0000 C   0  0  2  0  0  0  0  0  0  0  0  0
    9.4443   -8.7392    0.0000 C   0  0  2  0  0  0  0  0  0  0  0  0
    9.4445   -7.9142    0.0000 C   0  0  1  0  0  0  0  0  0  0  0  0
    8.7301   -7.5015    0.0000 C   0  0  2  0  0  0  0  0  0  0  0  0
    8.0155   -7.9139    0.0000 C   0  0  1  0  0  0  0  0  0  0  0  0
    8.0154   -8.7389    0.0000 O   0  0  0  0  0  0  0  0  0  0  0  0
    8.7296   -9.9765    0.0000 C   0  0  0  0  0  0  0  0  0  0  0  0
   10.1590   -7.5019    0.0000 O   0  0  0  0  0  0  0  0  0  0  0  0
   10.1587   -9.1518    0.0000 O   0  0  0  0  0  0  0  0  0  0  0  0
    8.7303   -6.6765    0.0000 O   0  0  0  0  0  0  0  0  0  0  0  0
    9.4440  -10.3892    0.0000 O   0  0  0  0  0  0  0  0  0  0  0  0
  1  2  2  0  0  0  0
  2  3  1  0  0  0  0
  3  4  2  0  0  0  0
  4  5  1  0  0  0  0
  5  6  2  0  0  0  0
  6  1  1  0  0  0  0
  5  7  1  0  0  0  0
  7  8  1  0  0  0  0
  7  9  1  6  0  0  0
  8 10  1  0  0  0  0
 11 12  1  0  0  0  0
 12 13  1  0  0  0  0
 13 14  1  0  0  0  0
 14 15  1  0  0  0  0
 15 16  1  0  0  0  0
 16 11  1  0  0  0  0
 11 17  1  1  0  0  0
 13 18  1  1  0  0  0
 12 19  1  6  0  0  0
 14 20  1  6  0  0  0
 17 21  1  0  0  0  0
 15 10  1  1  0  0  0
M  END
>  <cdx:fragmentId>
31

$$$$
