98849.cdx
  Mrv1902 05222410202D          

 78 85  0  0  0  0            999 V2000
    3.7355  -11.5877    0.0000 C   0  0  0  0  0  0  0  0  0  0  0  0
    3.7355  -12.2477    0.0000 C   0  0  1  0  0  0  0  0  0  0  0  0
    4.3070  -12.5777    0.0000 C   0  0  1  0  0  0  0  0  0  0  0  0
    4.8786  -12.2477    0.0000 C   0  0  0  0  0  0  0  0  0  0  0  0
    4.8786  -11.5877    0.0000 C   0  0  1  0  0  0  0  0  0  0  0  0
    4.3070  -11.2577    0.0000 C   0  0  0  0  0  0  0  0  0  0  0  0
    5.4502  -12.5777    0.0000 C   0  0  0  0  0  0  0  0  0  0  0  0
    6.0218  -12.2477    0.0000 C   0  0  0  0  0  0  0  0  0  0  0  0
    6.0218  -11.5877    0.0000 C   0  0  0  0  0  0  0  0  0  0  0  0
    5.4502  -11.2577    0.0000 C   0  0  1  0  0  0  0  0  0  0  0  0
    6.5933  -11.2577    0.0000 C   0  0  1  0  0  0  0  0  0  0  0  0
    6.5933  -10.5977    0.0000 C   0  0  2  0  0  0  0  0  0  0  0  0
    6.0218  -10.2677    0.0000 C   0  0  0  0  0  0  0  0  0  0  0  0
    5.4502  -10.5977    0.0000 C   0  0  0  0  0  0  0  0  0  0  0  0
    7.7365  -11.2577    0.0000 C   0  0  0  0  0  0  0  0  0  0  0  0
    7.7365  -10.5977    0.0000 C   0  0  0  0  0  0  0  0  0  0  0  0
    7.1649  -10.2677    0.0000 C   0  0  0  0  0  0  0  0  0  0  0  0
    4.8786  -10.2677    0.0000 O   0  0  0  0  0  0  0  0  0  0  0  0
    7.1649   -9.6077    0.0000 C   0  0  2  0  0  0  0  0  0  0  0  0
    6.5933   -9.2777    0.0000 C   0  0  0  0  0  0  0  0  0  0  0  0
    7.7365   -9.2777    0.0000 C   0  0  0  0  0  0  0  0  0  0  0  0
    8.3081   -9.6077    0.0000 C   0  0  0  0  0  0  0  0  0  0  0  0
    8.8797   -9.2777    0.0000 C   0  0  2  0  0  0  0  0  0  0  0  0
    9.4512   -9.6077    0.0000 C   0  0  0  0  0  0  0  0  0  0  0  0
    8.8797   -8.6177    0.0000 O   0  0  0  0  0  0  0  0  0  0  0  0
   10.0228   -9.2777    0.0000 C   0  0  0  0  0  0  0  0  0  0  0  0
    9.4512  -10.2677    0.0000 C   0  0  0  0  0  0  0  0  0  0  0  0
    3.1639  -12.5777    0.0000 O   0  0  0  0  0  0  0  0  0  0  0  0
    3.9770  -13.1492    0.0000 C   0  0  0  0  0  0  0  0  0  0  0  0
    5.4502  -11.9177    0.0000 C   0  0  0  0  0  0  0  0  0  0  0  0
    6.5933   -9.9377    0.0000 C   0  0  0  0  0  0  0  0  0  0  0  0
    6.7642  -11.8952    0.0000 C   0  0  0  0  0  0  0  0  0  0  0  0
    4.6370  -13.1492    0.0000 C   0  0  0  0  0  0  0  0  0  0  0  0
    4.8786  -10.9277    0.0000 H   0  0  0  0  0  0  0  0  0  0  0  0
   10.1959   -7.4597    0.0000 C   0  0  2  0  0  0  0  0  0  0  0  0
    9.8632   -6.8898    0.0000 C   0  0  2  0  0  0  0  0  0  0  0  0
    9.2032   -6.8929    0.0000 C   0  0  1  0  0  0  0  0  0  0  0  0
    8.8759   -7.4661    0.0000 C   0  0  2  0  0  0  0  0  0  0  0  0
    9.2087   -8.0361    0.0000 C   0  0  1  0  0  0  0  0  0  0  0  0
    9.8687   -8.0329    0.0000 O   0  0  0  0  0  0  0  0  0  0  0  0
   10.8559   -7.4566    0.0000 C   0  0  0  0  0  0  0  0  0  0  0  0
    8.8704   -6.3230    0.0000 O   0  0  0  0  0  0  0  0  0  0  0  0
   10.1904   -6.3166    0.0000 O   0  0  0  0  0  0  0  0  0  0  0  0
    8.2160   -7.4693    0.0000 O   0  0  0  0  0  0  0  0  0  0  0  0
   11.1832   -6.8834    0.0000 O   0  0  0  0  0  0  0  0  0  0  0  0
    2.0376  -11.2424    0.0000 C   0  0  2  0  0  0  0  0  0  0  0  0
    1.4635  -11.5679    0.0000 C   0  0  2  0  0  0  0  0  0  0  0  0
    1.4583  -12.2279    0.0000 C   0  0  1  0  0  0  0  0  0  0  0  0
    2.0272  -12.5624    0.0000 C   0  0  2  0  0  0  0  0  0  0  0  0
    2.6014  -12.2369    0.0000 C   0  0  1  0  0  0  0  0  0  0  0  0
    2.6066  -11.5769    0.0000 O   0  0  0  0  0  0  0  0  0  0  0  0
    2.0428  -10.5825    0.0000 C   0  0  0  0  0  0  0  0  0  0  0  0
    0.8841  -12.5534    0.0000 O   0  0  0  0  0  0  0  0  0  0  0  0
    0.8945  -11.2335    0.0000 O   0  0  0  0  0  0  0  0  0  0  0  0
    2.0221  -13.2224    0.0000 O   0  0  0  0  0  0  0  0  0  0  0  0
    1.4739  -10.2480    0.0000 O   0  0  0  0  0  0  0  0  0  0  0  0
   12.8904   -6.5644    0.0000 C   0  0  2  0  0  0  0  0  0  0  0  0
   12.8871   -5.9044    0.0000 C   0  0  2  0  0  0  0  0  0  0  0  0
   12.3138   -5.5772    0.0000 C   0  0  1  0  0  0  0  0  0  0  0  0
   11.7439   -5.9101    0.0000 C   0  0  2  0  0  0  0  0  0  0  0  0
   11.7472   -6.5701    0.0000 C   0  0  1  0  0  0  0  0  0  0  0  0
   12.3204   -6.8972    0.0000 O   0  0  0  0  0  0  0  0  0  0  0  0
   13.4636   -6.8915    0.0000 C   0  0  0  0  0  0  0  0  0  0  0  0
   12.3105   -4.9172    0.0000 O   0  0  0  0  0  0  0  0  0  0  0  0
   13.4570   -5.5715    0.0000 O   0  0  0  0  0  0  0  0  0  0  0  0
   11.1707   -5.5830    0.0000 O   0  0  0  0  0  0  0  0  0  0  0  0
   14.0335   -6.5586    0.0000 O   0  0  0  0  0  0  0  0  0  0  0  0
    2.0392   -8.5963    0.0000 C   0  0  2  0  0  0  0  0  0  0  0  0
    1.4668   -8.2677    0.0000 C   0  0  2  0  0  0  0  0  0  0  0  0
    0.8961   -8.5990    0.0000 C   0  0  1  0  0  0  0  0  0  0  0  0
    0.8976   -9.2590    0.0000 C   0  0  2  0  0  0  0  0  0  0  0  0
    1.4700   -9.5877    0.0000 C   0  0  1  0  0  0  0  0  0  0  0  0
    2.0408   -9.2563    0.0000 O   0  0  0  0  0  0  0  0  0  0  0  0
    2.6100   -8.2650    0.0000 C   0  0  0  0  0  0  0  0  0  0  0  0
    0.3237   -8.2704    0.0000 O   0  0  0  0  0  0  0  0  0  0  0  0
    1.4653   -7.6077    0.0000 O   0  0  0  0  0  0  0  0  0  0  0  0
    0.3268   -9.5904    0.0000 O   0  0  0  0  0  0  0  0  0  0  0  0
    2.6084   -7.6050    0.0000 O   0  0  0  0  0  0  0  0  0  0  0  0
  1  2  1  0  0  0  0
  2  3  1  0  0  0  0
  3  4  1  0  0  0  0
  4  5  1  0  0  0  0
  5  6  1  0  0  0  0
  6  1  1  0  0  0  0
  4  7  2  0  0  0  0
  7  8  1  0  0  0  0
  8  9  1  0  0  0  0
  9 10  1  0  0  0  0
 10  5  1  0  0  0  0
  9 11  1  0  0  0  0
 11 12  1  0  0  0  0
 12 13  1  0  0  0  0
 13 14  1  0  0  0  0
 14 10  1  0  0  0  0
 15 16  1  0  0  0  0
 16 17  1  0  0  0  0
 17 12  1  0  0  0  0
 11 15  1  0  0  0  0
 14 18  2  0  0  0  0
 17 19  1  0  0  0  0
 19 20  1  6  0  0  0
 19 21  1  0  0  0  0
 21 22  1  0  0  0  0
 22 23  1  0  0  0  0
 23 24  1  0  0  0  0
 23 25  1  1  0  0  0
 24 26  1  0  0  0  0
 24 27  1  0  0  0  0
  2 28  1  1  0  0  0
  3 29  1  1  0  0  0
 10 30  1  1  0  0  0
 12 31  1  1  0  0  0
 11 32  1  6  0  0  0
  3 33  1  6  0  0  0
  5 34  1  6  0  0  0
 35 36  1  0  0  0  0
 36 37  1  0  0  0  0
 37 38  1  0  0  0  0
 38 39  1  0  0  0  0
 39 40  1  0  0  0  0
 40 35  1  0  0  0  0
 35 41  1  1  0  0  0
 37 42  1  1  0  0  0
 36 43  1  6  0  0  0
 38 44  1  6  0  0  0
 41 45  1  0  0  0  0
 39 25  1  1  0  0  0
 46 47  1  0  0  0  0
 47 48  1  0  0  0  0
 48 49  1  0  0  0  0
 49 50  1  0  0  0  0
 50 51  1  0  0  0  0
 51 46  1  0  0  0  0
 46 52  1  1  0  0  0
 48 53  1  1  0  0  0
 47 54  1  6  0  0  0
 49 55  1  6  0  0  0
 52 56  1  0  0  0  0
 50 28  1  1  0  0  0
 57 58  1  0  0  0  0
 58 59  1  0  0  0  0
 59 60  1  0  0  0  0
 60 61  1  0  0  0  0
 61 62  1  0  0  0  0
 62 57  1  0  0  0  0
 57 63  1  1  0  0  0
 59 64  1  1  0  0  0
 58 65  1  6  0  0  0
 60 66  1  6  0  0  0
 63 67  1  0  0  0  0
 61 45  1  1  0  0  0
 68 69  1  0  0  0  0
 69 70  1  0  0  0  0
 70 71  1  0  0  0  0
 71 72  1  0  0  0  0
 72 73  1  0  0  0  0
 73 68  1  0  0  0  0
 68 74  1  1  0  0  0
 70 75  1  1  0  0  0
 69 76  1  6  0  0  0
 71 77  1  6  0  0  0
 74 78  1  0  0  0  0
 72 56  1  1  0  0  0
M  END
>  <cdx:fragmentId>
5

$$$$
