98855.cdx
  Mrv1902 05222410282D          

 23 23  0  0  0  0            999 V2000
    6.9604   -7.7046    0.0000 O   0  0  0  0  0  0  0  0  0  0  0  0
    7.6749   -8.1171    0.0000 C   0  0  0  0  0  0  0  0  0  0  0  0
    8.3894   -7.7046    0.0000 C   0  0  0  0  0  0  0  0  0  0  0  0
    9.1038   -8.1171    0.0000 C   0  0  0  0  0  0  0  0  0  0  0  0
    9.8183   -7.7046    0.0000 C   0  0  0  0  0  0  0  0  0  0  0  0
   10.5328   -8.1171    0.0000 C   0  0  0  0  0  0  0  0  0  0  0  0
   11.2473   -7.7046    0.0000 C   0  0  0  0  0  0  0  0  0  0  0  0
   11.2470   -6.8796    0.0000 C   0  0  0  0  0  0  0  0  0  0  0  0
   10.5325   -6.4673    0.0000 C   0  0  0  0  0  0  0  0  0  0  0  0
   10.5322   -5.6423    0.0000 O   0  0  0  0  0  0  0  0  0  0  0  0
   11.9614   -6.4669    0.0000 C   0  0  0  0  0  0  0  0  0  0  0  0
    9.1038   -8.9421    0.0000 C   0  0  0  0  0  0  0  0  0  0  0  0
    4.8113   -8.1047    0.0000 C   0  0  2  0  0  0  0  0  0  0  0  0
    4.8061   -8.9297    0.0000 C   0  0  2  0  0  0  0  0  0  0  0  0
    5.5180   -9.3466    0.0000 C   0  0  1  0  0  0  0  0  0  0  0  0
    6.2350   -8.9386    0.0000 C   0  0  2  0  0  0  0  0  0  0  0  0
    6.2402   -8.1136    0.0000 C   0  0  1  0  0  0  0  0  0  0  0  0
    5.5283   -7.6966    0.0000 O   0  0  0  0  0  0  0  0  0  0  0  0
    4.0994   -7.6878    0.0000 C   0  0  0  0  0  0  0  0  0  0  0  0
    5.5129  -10.1716    0.0000 O   0  0  0  0  0  0  0  0  0  0  0  0
    4.0891   -9.3377    0.0000 O   0  0  0  0  0  0  0  0  0  0  0  0
    6.9469   -9.3555    0.0000 O   0  0  0  0  0  0  0  0  0  0  0  0
    3.3823   -8.0958    0.0000 O   0  0  0  0  0  0  0  0  0  0  0  0
  2  1  1  0  0  0  0
  3  2  1  0  0  0  0
  4  3  2  0  0  0  0
  5  4  1  0  0  0  0
  6  5  1  0  0  0  0
  7  6  1  0  0  0  0
  8  7  2  0  0  0  0
  9  8  1  0  0  0  0
 10  9  1  0  0  0  0
  8 11  1  0  0  0  0
  4 12  1  0  0  0  0
 13 14  1  0  0  0  0
 14 15  1  0  0  0  0
 15 16  1  0  0  0  0
 16 17  1  0  0  0  0
 17 18  1  0  0  0  0
 18 13  1  0  0  0  0
 13 19  1  1  0  0  0
 15 20  1  1  0  0  0
 14 21  1  6  0  0  0
 16 22  1  6  0  0  0
 19 23  1  0  0  0  0
 17  1  1  1  0  0  0
M  END
>  <cdx:fragmentId>
3

$$$$
