98859.cdx
  Mrv1902 05222410182D          

 49 55  0  0  0  0            999 V2000
    3.2224   -9.2538    0.0000 C   0  0  1  0  0  0  0  0  0  0  0  0
    3.2224  -10.0787    0.0000 C   0  0  1  0  0  0  0  0  0  0  0  0
    3.9369  -10.4912    0.0000 C   0  0  2  0  0  0  0  0  0  0  0  0
    4.6514  -10.0787    0.0000 C   0  0  1  0  0  0  0  0  0  0  0  0
    4.6514   -9.2538    0.0000 O   0  0  0  0  0  0  0  0  0  0  0  0
    3.9369   -8.8413    0.0000 C   0  0  0  0  0  0  0  0  0  0  0  0
    5.3658  -10.4912    0.0000 O   0  0  0  0  0  0  0  0  0  0  0  0
    6.0803  -10.0787    0.0000 C   0  0  1  0  0  0  0  0  0  0  0  0
    6.0803   -9.2538    0.0000 C   0  0  0  0  0  0  0  0  0  0  0  0
    6.7948  -10.4912    0.0000 C   0  0  0  0  0  0  0  0  0  0  0  0
    7.5093  -10.0787    0.0000 C   0  0  1  0  0  0  0  0  0  0  0  0
    7.5093   -9.2538    0.0000 C   0  0  2  0  0  0  0  0  0  0  0  0
    6.7948   -8.8413    0.0000 C   0  0  0  0  0  0  0  0  0  0  0  0
    8.2237  -10.4912    0.0000 C   0  0  0  0  0  0  0  0  0  0  0  0
    8.9382  -10.0787    0.0000 C   0  0  0  0  0  0  0  0  0  0  0  0
    8.9382   -9.2538    0.0000 C   0  0  2  0  0  0  0  0  0  0  0  0
    8.2237   -8.8413    0.0000 C   0  0  1  0  0  0  0  0  0  0  0  0
    9.6527   -8.8413    0.0000 C   0  0  2  0  0  0  0  0  0  0  0  0
    9.6527   -8.0162    0.0000 C   0  0  1  0  0  0  0  0  0  0  0  0
    8.9382   -7.6037    0.0000 C   0  0  1  0  0  0  0  0  0  0  0  0
    8.2237   -8.0162    0.0000 C   0  0  0  0  0  0  0  0  0  0  0  0
    6.3823  -11.2057    0.0000 C   0  0  0  0  0  0  0  0  0  0  0  0
    7.2073  -11.2057    0.0000 C   0  0  0  0  0  0  0  0  0  0  0  0
    9.6527   -7.1913    0.0000 C   0  0  0  0  0  0  0  0  0  0  0  0
   10.2360   -6.6079    0.0000 O   0  0  0  0  0  0  0  0  0  0  0  0
    2.5080   -8.8413    0.0000 O   0  0  0  0  0  0  0  0  0  0  0  0
    3.9369  -11.3163    0.0000 O   0  0  0  0  0  0  0  0  0  0  0  0
    7.5093  -10.9038    0.0000 H   0  0  0  0  0  0  0  0  0  0  0  0
    9.6527   -9.6662    0.0000 C   0  0  0  0  0  0  0  0  0  0  0  0
    2.5080  -10.4912    0.0000 O   0  0  0  0  0  0  0  0  0  0  0  0
    7.5093   -8.4288    0.0000 C   0  0  0  0  0  0  0  0  0  0  0  0
    8.9382   -8.4288    0.0000 H   0  0  0  0  0  0  0  0  0  0  0  0
    8.9382   -6.7788    0.0000 O   0  0  0  0  0  0  0  0  0  0  0  0
   10.4373   -9.0962    0.0000 C   0  0  0  0  0  0  0  0  0  0  0  0
   10.9222   -8.4288    0.0000 C   0  0  1  0  0  0  0  0  0  0  0  0
   10.4373   -7.7613    0.0000 C   0  0  2  0  0  0  0  0  0  0  0  0
   10.6922   -6.9767    0.0000 C   0  0  1  0  0  0  0  0  0  0  0  0
   11.7472   -8.4288    0.0000 O   0  0  0  0  0  0  0  0  0  0  0  0
   11.4768   -6.7218    0.0000 O   0  0  0  0  0  0  0  0  0  0  0  0
   11.4768   -5.8968    0.0000 C   0  0  2  0  0  0  0  0  0  0  0  0
   10.6922   -5.6418    0.0000 C   0  0  0  0  0  0  0  0  0  0  0  0
   10.2073   -6.3093    0.0000 C   0  0  0  0  0  0  0  0  0  0  0  0
   12.1443   -5.4118    0.0000 C   0  0  0  0  0  0  0  0  0  0  0  0
   12.8980   -5.7474    0.0000 C   0  0  0  0  0  0  0  0  0  0  0  0
   12.0581   -4.5913    0.0000 C   0  0  0  0  0  0  0  0  0  0  0  0
   12.8117   -4.9269    0.0000 O   0  0  0  0  0  0  0  0  0  0  0  0
   11.4067   -7.3892    0.0000 C   0  0  0  0  0  0  0  0  0  0  0  0
   11.2623   -7.7613    0.0000 H   0  0  0  0  0  0  0  0  0  0  0  0
   11.4768   -5.0718    0.0000 H   0  0  0  0  0  0  0  0  0  0  0  0
  1  2  1  0  0  0  0
  2  3  1  0  0  0  0
  3  4  1  0  0  0  0
  4  5  1  0  0  0  0
  5  6  1  0  0  0  0
  6  1  1  0  0  0  0
  4  7  1  1  0  0  0
  8  7  1  1  0  0  0
  8  9  1  0  0  0  0
  8 10  1  0  0  0  0
 10 11  1  0  0  0  0
 11 12  1  0  0  0  0
 12 13  1  0  0  0  0
 13  9  1  0  0  0  0
 11 14  1  0  0  0  0
 14 15  1  0  0  0  0
 15 16  1  0  0  0  0
 16 17  1  0  0  0  0
 17 12  1  0  0  0  0
 16 18  1  0  0  0  0
 18 19  1  0  0  0  0
 19 20  1  0  0  0  0
 20 21  1  0  0  0  0
 21 17  1  0  0  0  0
 10 22  1  0  0  0  0
 10 23  1  0  0  0  0
 19 24  1  1  0  0  0
 24 25  1  0  0  0  0
  1 26  1  6  0  0  0
  3 27  1  6  0  0  0
 11 28  1  6  0  0  0
 18 29  1  6  0  0  0
  2 30  1  1  0  0  0
 12 31  1  1  0  0  0
 17 31  1  1  0  0  0
 16 32  1  1  0  0  0
 20 33  1  1  0  0  0
 18 34  1  0  0  0  0
 34 35  1  0  0  0  0
 35 36  1  0  0  0  0
 36 19  1  0  0  0  0
 36 37  1  0  0  0  0
 35 38  1  1  0  0  0
 37 39  1  0  0  0  0
 39 40  1  0  0  0  0
 40 41  1  0  0  0  0
 41 42  1  0  0  0  0
 42 37  1  0  0  0  0
 40 43  1  0  0  0  0
 43 44  1  0  0  0  0
 43 45  1  0  0  0  0
 43 46  1  0  0  0  0
 37 47  1  1  0  0  0
 36 48  1  6  0  0  0
 40 49  1  1  0  0  0
M  END
>  <cdx:fragmentId>
5

$$$$
