98851.cdx
  Mrv1902 05222410262D          

 77 84  0  0  0  0            999 V2000
    3.7984  -10.0477    0.0000 C   0  0  0  0  0  0  0  0  0  0  0  0
    3.7984  -10.7077    0.0000 C   0  0  1  0  0  0  0  0  0  0  0  0
    4.3700  -11.0377    0.0000 C   0  0  1  0  0  0  0  0  0  0  0  0
    4.9416  -10.7077    0.0000 C   0  0  0  0  0  0  0  0  0  0  0  0
    4.9416  -10.0477    0.0000 C   0  0  1  0  0  0  0  0  0  0  0  0
    4.3700   -9.7177    0.0000 C   0  0  0  0  0  0  0  0  0  0  0  0
    5.5132  -11.0377    0.0000 C   0  0  0  0  0  0  0  0  0  0  0  0
    6.0847  -10.7077    0.0000 C   0  0  0  0  0  0  0  0  0  0  0  0
    6.0847  -10.0477    0.0000 C   0  0  0  0  0  0  0  0  0  0  0  0
    5.5132   -9.7177    0.0000 C   0  0  1  0  0  0  0  0  0  0  0  0
    6.6563   -9.7177    0.0000 C   0  0  1  0  0  0  0  0  0  0  0  0
    6.6563   -9.0577    0.0000 C   0  0  2  0  0  0  0  0  0  0  0  0
    6.0847   -8.7277    0.0000 C   0  0  0  0  0  0  0  0  0  0  0  0
    5.5132   -9.0577    0.0000 C   0  0  0  0  0  0  0  0  0  0  0  0
    7.7995   -9.7177    0.0000 C   0  0  0  0  0  0  0  0  0  0  0  0
    7.7995   -9.0577    0.0000 C   0  0  0  0  0  0  0  0  0  0  0  0
    7.2279   -8.7277    0.0000 C   0  0  0  0  0  0  0  0  0  0  0  0
    7.2279   -8.0677    0.0000 C   0  0  2  0  0  0  0  0  0  0  0  0
    6.6563   -7.7377    0.0000 C   0  0  0  0  0  0  0  0  0  0  0  0
    7.7995   -7.7377    0.0000 C   0  0  0  0  0  0  0  0  0  0  0  0
    8.3711   -8.0677    0.0000 C   0  0  0  0  0  0  0  0  0  0  0  0
    8.9426   -7.7377    0.0000 C   0  0  2  0  0  0  0  0  0  0  0  0
    9.5142   -8.0677    0.0000 C   0  0  0  0  0  0  0  0  0  0  0  0
    8.9426   -7.0777    0.0000 O   0  0  0  0  0  0  0  0  0  0  0  0
   10.0858   -7.7377    0.0000 C   0  0  0  0  0  0  0  0  0  0  0  0
    9.5142   -8.7277    0.0000 C   0  0  0  0  0  0  0  0  0  0  0  0
    3.2269  -11.0377    0.0000 O   0  0  0  0  0  0  0  0  0  0  0  0
    4.0400  -11.6092    0.0000 C   0  0  0  0  0  0  0  0  0  0  0  0
    5.5132  -10.3777    0.0000 C   0  0  0  0  0  0  0  0  0  0  0  0
    6.6563   -8.3977    0.0000 C   0  0  0  0  0  0  0  0  0  0  0  0
    6.8271  -10.3552    0.0000 C   0  0  0  0  0  0  0  0  0  0  0  0
    4.7000  -11.6092    0.0000 C   0  0  0  0  0  0  0  0  0  0  0  0
    4.9416   -9.3877    0.0000 H   0  0  0  0  0  0  0  0  0  0  0  0
   10.2589   -5.9197    0.0000 C   0  0  2  0  0  0  0  0  0  0  0  0
    9.9262   -5.3498    0.0000 C   0  0  2  0  0  0  0  0  0  0  0  0
    9.2662   -5.3529    0.0000 C   0  0  1  0  0  0  0  0  0  0  0  0
    8.9389   -5.9261    0.0000 C   0  0  2  0  0  0  0  0  0  0  0  0
    9.2717   -6.4961    0.0000 C   0  0  1  0  0  0  0  0  0  0  0  0
    9.9317   -6.4929    0.0000 O   0  0  0  0  0  0  0  0  0  0  0  0
   10.9189   -5.9166    0.0000 C   0  0  0  0  0  0  0  0  0  0  0  0
    8.9334   -4.7830    0.0000 O   0  0  0  0  0  0  0  0  0  0  0  0
   10.2534   -4.7766    0.0000 O   0  0  0  0  0  0  0  0  0  0  0  0
    8.2789   -5.9293    0.0000 O   0  0  0  0  0  0  0  0  0  0  0  0
   11.2461   -5.3434    0.0000 O   0  0  0  0  0  0  0  0  0  0  0  0
    2.1006   -9.7024    0.0000 C   0  0  2  0  0  0  0  0  0  0  0  0
    1.5265  -10.0279    0.0000 C   0  0  2  0  0  0  0  0  0  0  0  0
    1.5213  -10.6879    0.0000 C   0  0  1  0  0  0  0  0  0  0  0  0
    2.0902  -11.0224    0.0000 C   0  0  2  0  0  0  0  0  0  0  0  0
    2.6644  -10.6969    0.0000 C   0  0  1  0  0  0  0  0  0  0  0  0
    2.6696  -10.0369    0.0000 O   0  0  0  0  0  0  0  0  0  0  0  0
    2.1058   -9.0425    0.0000 C   0  0  0  0  0  0  0  0  0  0  0  0
    0.9471  -11.0134    0.0000 O   0  0  0  0  0  0  0  0  0  0  0  0
    0.9575   -9.6935    0.0000 O   0  0  0  0  0  0  0  0  0  0  0  0
    2.0850  -11.6824    0.0000 O   0  0  0  0  0  0  0  0  0  0  0  0
    1.5368   -8.7080    0.0000 O   0  0  0  0  0  0  0  0  0  0  0  0
   12.9533   -5.0244    0.0000 C   0  0  2  0  0  0  0  0  0  0  0  0
   12.9500   -4.3644    0.0000 C   0  0  2  0  0  0  0  0  0  0  0  0
   12.3768   -4.0372    0.0000 C   0  0  1  0  0  0  0  0  0  0  0  0
   11.8069   -4.3701    0.0000 C   0  0  2  0  0  0  0  0  0  0  0  0
   11.8102   -5.0301    0.0000 C   0  0  1  0  0  0  0  0  0  0  0  0
   12.3834   -5.3572    0.0000 O   0  0  0  0  0  0  0  0  0  0  0  0
   13.5266   -5.3515    0.0000 C   0  0  0  0  0  0  0  0  0  0  0  0
   12.3735   -3.3772    0.0000 O   0  0  0  0  0  0  0  0  0  0  0  0
   13.5199   -4.0315    0.0000 O   0  0  0  0  0  0  0  0  0  0  0  0
   11.2337   -4.0430    0.0000 O   0  0  0  0  0  0  0  0  0  0  0  0
   14.0965   -5.0186    0.0000 O   0  0  0  0  0  0  0  0  0  0  0  0
    2.1022   -7.0563    0.0000 C   0  0  2  0  0  0  0  0  0  0  0  0
    1.5298   -6.7277    0.0000 C   0  0  2  0  0  0  0  0  0  0  0  0
    0.9590   -7.0590    0.0000 C   0  0  1  0  0  0  0  0  0  0  0  0
    0.9606   -7.7190    0.0000 C   0  0  2  0  0  0  0  0  0  0  0  0
    1.5329   -8.0477    0.0000 C   0  0  1  0  0  0  0  0  0  0  0  0
    2.1037   -7.7163    0.0000 O   0  0  0  0  0  0  0  0  0  0  0  0
    2.6730   -6.7250    0.0000 C   0  0  0  0  0  0  0  0  0  0  0  0
    0.3867   -6.7304    0.0000 O   0  0  0  0  0  0  0  0  0  0  0  0
    1.5283   -6.0677    0.0000 O   0  0  0  0  0  0  0  0  0  0  0  0
    0.3898   -8.0504    0.0000 O   0  0  0  0  0  0  0  0  0  0  0  0
    2.6714   -6.0650    0.0000 O   0  0  0  0  0  0  0  0  0  0  0  0
  1  2  1  0  0  0  0
  2  3  1  0  0  0  0
  3  4  1  0  0  0  0
  4  5  1  0  0  0  0
  5  6  1  0  0  0  0
  6  1  1  0  0  0  0
  4  7  2  0  0  0  0
  7  8  1  0  0  0  0
  8  9  1  0  0  0  0
  9 10  1  0  0  0  0
 10  5  1  0  0  0  0
  9 11  1  0  0  0  0
 11 12  1  0  0  0  0
 12 13  1  0  0  0  0
 13 14  1  0  0  0  0
 14 10  1  0  0  0  0
 15 16  1  0  0  0  0
 16 17  1  0  0  0  0
 17 12  1  0  0  0  0
 11 15  1  0  0  0  0
 17 18  1  0  0  0  0
 18 19  1  6  0  0  0
 18 20  1  0  0  0  0
 20 21  1  0  0  0  0
 21 22  1  0  0  0  0
 22 23  1  0  0  0  0
 22 24  1  1  0  0  0
 23 25  1  0  0  0  0
 23 26  1  0  0  0  0
  2 27  1  1  0  0  0
  3 28  1  1  0  0  0
 10 29  1  1  0  0  0
 12 30  1  1  0  0  0
 11 31  1  6  0  0  0
  3 32  1  6  0  0  0
  5 33  1  6  0  0  0
 34 35  1  0  0  0  0
 35 36  1  0  0  0  0
 36 37  1  0  0  0  0
 37 38  1  0  0  0  0
 38 39  1  0  0  0  0
 39 34  1  0  0  0  0
 34 40  1  1  0  0  0
 36 41  1  1  0  0  0
 35 42  1  6  0  0  0
 37 43  1  6  0  0  0
 40 44  1  0  0  0  0
 38 24  1  1  0  0  0
 45 46  1  0  0  0  0
 46 47  1  0  0  0  0
 47 48  1  0  0  0  0
 48 49  1  0  0  0  0
 49 50  1  0  0  0  0
 50 45  1  0  0  0  0
 45 51  1  1  0  0  0
 47 52  1  1  0  0  0
 46 53  1  6  0  0  0
 48 54  1  6  0  0  0
 51 55  1  0  0  0  0
 49 27  1  1  0  0  0
 56 57  1  0  0  0  0
 57 58  1  0  0  0  0
 58 59  1  0  0  0  0
 59 60  1  0  0  0  0
 60 61  1  0  0  0  0
 61 56  1  0  0  0  0
 56 62  1  1  0  0  0
 58 63  1  1  0  0  0
 57 64  1  6  0  0  0
 59 65  1  6  0  0  0
 62 66  1  0  0  0  0
 60 44  1  1  0  0  0
 67 68  1  0  0  0  0
 68 69  1  0  0  0  0
 69 70  1  0  0  0  0
 70 71  1  0  0  0  0
 71 72  1  0  0  0  0
 72 67  1  0  0  0  0
 67 73  1  1  0  0  0
 69 74  1  1  0  0  0
 68 75  1  6  0  0  0
 70 76  1  6  0  0  0
 73 77  1  0  0  0  0
 71 55  1  1  0  0  0
M  END
>  <cdx:fragmentId>
5

$$$$
