98857.cdx
  Mrv1902 05222410272D          

 33 34  0  0  0  0            999 V2000
    7.8180   -3.0587    0.0000 C   0  0  0  0  0  0  0  0  0  0  0  0
    7.1025   -2.6481    0.0000 O   0  0  0  0  0  0  0  0  0  0  0  0
    8.5314   -2.6443    0.0000 O   0  0  0  0  0  0  0  0  0  0  0  0
    7.1068   -4.2981    0.0000 O   0  0  0  0  0  0  0  0  0  0  0  0
    7.3001   -5.0120    0.0000 O   0  0  0  0  0  0  0  0  0  0  0  0
    8.5395   -5.7232    0.0000 O   0  0  0  0  0  0  0  0  0  0  0  0
    8.1251   -5.0098    0.0000 C   0  0  0  0  0  0  0  0  0  0  0  0
    9.2513   -4.7049    0.0000 O   0  0  0  0  0  0  0  0  0  0  0  0
    7.8202   -3.8837    0.0000 C   0  0  1  0  0  0  0  0  0  0  0  0
    8.5358   -4.2943    0.0000 C   0  0  0  0  0  0  0  0  0  0  0  0
    8.9464   -3.5787    0.0000 C   0  0  0  0  0  0  0  0  0  0  0  0
   12.2463   -3.5700    0.0000 O   0  0  0  0  0  0  0  0  0  0  0  0
   11.0070   -2.8588    0.0000 C   0  0  0  0  0  0  0  0  0  0  0  0
   10.1820   -2.8610    0.0000 C   0  0  0  0  0  0  0  0  0  0  0  0
    9.7714   -3.5765    0.0000 C   0  0  0  0  0  0  0  0  0  0  0  0
   10.1857   -4.2899    0.0000 C   0  0  0  0  0  0  0  0  0  0  0  0
   11.0107   -4.2877    0.0000 C   0  0  0  0  0  0  0  0  0  0  0  0
   11.4214   -3.5722    0.0000 C   0  0  0  0  0  0  0  0  0  0  0  0
    6.3907   -3.8884    0.0000 C   0  0  0  0  0  0  0  0  0  0  0  0
    6.3874   -3.0634    0.0000 O   0  0  0  0  0  0  0  0  0  0  0  0
    5.6779   -4.3038    0.0000 C   0  0  0  0  0  0  0  0  0  0  0  0
    4.9387   -3.9374    0.0000 C   0  0  0  0  0  0  0  0  0  0  0  0
    2.1315   -5.6711    0.0000 O   0  0  0  0  0  0  0  0  0  0  0  0
    2.1012   -4.0213    0.0000 O   0  0  0  0  0  0  0  0  0  0  0  0
    3.5299   -3.9950    0.0000 C   0  0  0  0  0  0  0  0  0  0  0  0
    2.8231   -4.4206    0.0000 C   0  0  0  0  0  0  0  0  0  0  0  0
    2.8383   -5.2455    0.0000 C   0  0  0  0  0  0  0  0  0  0  0  0
    3.5602   -5.6448    0.0000 C   0  0  0  0  0  0  0  0  0  0  0  0
    4.2670   -5.2192    0.0000 C   0  0  0  0  0  0  0  0  0  0  0  0
    4.2518   -4.3943    0.0000 C   0  0  0  0  0  0  0  0  0  0  0  0
   11.4176   -2.1432    0.0000 O   0  0  0  0  0  0  0  0  0  0  0  0
   12.2426   -2.1432    0.0000 C   0  0  0  0  0  0  0  0  0  0  0  0
    1.4096   -5.2718    0.0000 C   0  0  0  0  0  0  0  0  0  0  0  0
  1  2  2  0  0  0  0
  9  4  1  6  0  0  0
  9  1  1  0  0  0  0
  1  3  1  0  0  0  0
  7  5  2  0  0  0  0
  7  6  1  0  0  0  0
 10  7  1  0  0  0  0
 10  8  1  1  0  0  0
 10  9  1  0  0  0  0
 11 10  1  0  0  0  0
 15 11  1  0  0  0  0
 18 12  1  0  0  0  0
 13 18  1  0  0  0  0
 14 13  2  0  0  0  0
 15 14  1  0  0  0  0
 16 15  2  0  0  0  0
 17 16  1  0  0  0  0
 18 17  2  0  0  0  0
  4 19  1  0  0  0  0
 19 20  2  0  0  0  0
 19 21  1  0  0  0  0
 21 22  2  0  0  0  0
 22 30  1  0  0  0  0
 27 23  1  0  0  0  0
 26 24  1  0  0  0  0
 25 30  1  0  0  0  0
 26 25  2  0  0  0  0
 27 26  1  0  0  0  0
 28 27  2  0  0  0  0
 29 28  1  0  0  0  0
 30 29  2  0  0  0  0
 13 31  1  0  0  0  0
 31 32  1  0  0  0  0
 23 33  1  0  0  0  0
M  END
>  <cdx:fragmentId>
198

$$$$
