98852.cdx
  Mrv1902 05222410272D          

 68 74  0  0  0  0            999 V2000
    3.5372  -10.1439    0.0000 C   0  0  0  0  0  0  0  0  0  0  0  0
    3.5372  -10.8039    0.0000 C   0  0  1  0  0  0  0  0  0  0  0  0
    4.1088  -11.1339    0.0000 C   0  0  1  0  0  0  0  0  0  0  0  0
    4.6803  -10.8039    0.0000 C   0  0  0  0  0  0  0  0  0  0  0  0
    4.6803  -10.1439    0.0000 C   0  0  1  0  0  0  0  0  0  0  0  0
    4.1088   -9.8139    0.0000 C   0  0  0  0  0  0  0  0  0  0  0  0
    5.2519  -11.1339    0.0000 C   0  0  0  0  0  0  0  0  0  0  0  0
    5.8235  -10.8039    0.0000 C   0  0  0  0  0  0  0  0  0  0  0  0
    5.8235  -10.1439    0.0000 C   0  0  0  0  0  0  0  0  0  0  0  0
    5.2519   -9.8139    0.0000 C   0  0  1  0  0  0  0  0  0  0  0  0
    6.3951   -9.8139    0.0000 C   0  0  1  0  0  0  0  0  0  0  0  0
    6.3951   -9.1539    0.0000 C   0  0  2  0  0  0  0  0  0  0  0  0
    5.8235   -8.8239    0.0000 C   0  0  0  0  0  0  0  0  0  0  0  0
    5.2519   -9.1539    0.0000 C   0  0  0  0  0  0  0  0  0  0  0  0
    7.5382   -9.8139    0.0000 C   0  0  0  0  0  0  0  0  0  0  0  0
    7.5382   -9.1539    0.0000 C   0  0  0  0  0  0  0  0  0  0  0  0
    6.9666   -8.8239    0.0000 C   0  0  0  0  0  0  0  0  0  0  0  0
    6.9666   -8.1639    0.0000 C   0  0  2  0  0  0  0  0  0  0  0  0
    6.3951   -7.8339    0.0000 C   0  0  0  0  0  0  0  0  0  0  0  0
    7.5382   -7.8339    0.0000 C   0  0  0  0  0  0  0  0  0  0  0  0
    8.1098   -8.1639    0.0000 C   0  0  0  0  0  0  0  0  0  0  0  0
    8.6814   -7.8339    0.0000 C   0  0  2  0  0  0  0  0  0  0  0  0
    9.2530   -8.1639    0.0000 C   0  0  0  0  0  0  0  0  0  0  0  0
    8.6814   -7.1739    0.0000 O   0  0  0  0  0  0  0  0  0  0  0  0
    9.8245   -7.8339    0.0000 C   0  0  0  0  0  0  0  0  0  0  0  0
    9.2530   -8.8239    0.0000 C   0  0  0  0  0  0  0  0  0  0  0  0
    2.9656  -11.1339    0.0000 O   0  0  0  0  0  0  0  0  0  0  0  0
    3.7788  -11.7055    0.0000 C   0  0  0  0  0  0  0  0  0  0  0  0
    5.2519  -10.4739    0.0000 C   0  0  0  0  0  0  0  0  0  0  0  0
    6.3951   -8.4939    0.0000 C   0  0  0  0  0  0  0  0  0  0  0  0
    6.5659  -10.4514    0.0000 C   0  0  0  0  0  0  0  0  0  0  0  0
    4.4388  -11.7055    0.0000 C   0  0  0  0  0  0  0  0  0  0  0  0
    4.6803   -9.4839    0.0000 H   0  0  0  0  0  0  0  0  0  0  0  0
    9.9977   -6.0160    0.0000 C   0  0  2  0  0  0  0  0  0  0  0  0
    9.6649   -5.4460    0.0000 C   0  0  2  0  0  0  0  0  0  0  0  0
    9.0049   -5.4492    0.0000 C   0  0  1  0  0  0  0  0  0  0  0  0
    8.6777   -6.0223    0.0000 C   0  0  2  0  0  0  0  0  0  0  0  0
    9.0104   -6.5923    0.0000 C   0  0  1  0  0  0  0  0  0  0  0  0
    9.6704   -6.5892    0.0000 O   0  0  0  0  0  0  0  0  0  0  0  0
   10.6576   -6.0128    0.0000 C   0  0  0  0  0  0  0  0  0  0  0  0
    8.6722   -4.8792    0.0000 O   0  0  0  0  0  0  0  0  0  0  0  0
    9.9922   -4.8729    0.0000 O   0  0  0  0  0  0  0  0  0  0  0  0
    8.0177   -6.0255    0.0000 O   0  0  0  0  0  0  0  0  0  0  0  0
   10.9849   -5.4397    0.0000 O   0  0  0  0  0  0  0  0  0  0  0  0
    1.8394   -9.7987    0.0000 C   0  0  2  0  0  0  0  0  0  0  0  0
    1.2652  -10.1242    0.0000 C   0  0  2  0  0  0  0  0  0  0  0  0
    1.2600  -10.7842    0.0000 C   0  0  1  0  0  0  0  0  0  0  0  0
    1.8290  -11.1187    0.0000 C   0  0  2  0  0  0  0  0  0  0  0  0
    2.4031  -10.7932    0.0000 C   0  0  1  0  0  0  0  0  0  0  0  0
    2.4083  -10.1332    0.0000 O   0  0  0  0  0  0  0  0  0  0  0  0
    1.8446   -9.1387    0.0000 C   0  0  0  0  0  0  0  0  0  0  0  0
    0.6859  -11.1097    0.0000 O   0  0  0  0  0  0  0  0  0  0  0  0
    0.6962   -9.7897    0.0000 O   0  0  0  0  0  0  0  0  0  0  0  0
    1.8238  -11.7786    0.0000 O   0  0  0  0  0  0  0  0  0  0  0  0
    1.2756   -8.8042    0.0000 O   0  0  0  0  0  0  0  0  0  0  0  0
   12.6921   -5.1206    0.0000 C   0  0  2  0  0  0  0  0  0  0  0  0
   12.6888   -4.4606    0.0000 C   0  0  2  0  0  0  0  0  0  0  0  0
   12.1156   -4.1335    0.0000 C   0  0  1  0  0  0  0  0  0  0  0  0
   11.5456   -4.4663    0.0000 C   0  0  2  0  0  0  0  0  0  0  0  0
   11.5489   -5.1263    0.0000 C   0  0  1  0  0  0  0  0  0  0  0  0
   12.1222   -5.4535    0.0000 O   0  0  0  0  0  0  0  0  0  0  0  0
   13.2653   -5.4477    0.0000 C   0  0  0  0  0  0  0  0  0  0  0  0
   12.1122   -3.4735    0.0000 O   0  0  0  0  0  0  0  0  0  0  0  0
   13.2587   -4.1278    0.0000 O   0  0  0  0  0  0  0  0  0  0  0  0
   10.9724   -4.1392    0.0000 O   0  0  0  0  0  0  0  0  0  0  0  0
   13.8352   -5.1149    0.0000 O   0  0  0  0  0  0  0  0  0  0  0  0
    4.7024   -8.8377    0.0000 O   0  0  0  0  0  0  0  0  0  0  0  0
    6.3867  -11.1477    0.0000 O   0  0  0  0  0  0  0  0  0  0  0  0
  1  2  1  0  0  0  0
  2  3  1  0  0  0  0
  3  4  1  0  0  0  0
  4  5  1  0  0  0  0
  5  6  1  0  0  0  0
  6  1  1  0  0  0  0
  4  7  2  0  0  0  0
  7  8  1  0  0  0  0
  8  9  1  0  0  0  0
  9 10  1  0  0  0  0
 10  5  1  0  0  0  0
  9 11  1  0  0  0  0
 11 12  1  0  0  0  0
 12 13  1  0  0  0  0
 13 14  1  0  0  0  0
 14 10  1  0  0  0  0
 15 16  1  0  0  0  0
 16 17  1  0  0  0  0
 17 12  1  0  0  0  0
 11 15  1  0  0  0  0
 17 18  1  0  0  0  0
 18 19  1  6  0  0  0
 18 20  1  0  0  0  0
 20 21  1  0  0  0  0
 21 22  1  0  0  0  0
 22 23  1  0  0  0  0
 22 24  1  1  0  0  0
 23 25  1  0  0  0  0
 23 26  1  0  0  0  0
  2 27  1  1  0  0  0
  3 28  1  1  0  0  0
 10 29  1  1  0  0  0
 12 30  1  1  0  0  0
 11 31  1  6  0  0  0
  3 32  1  6  0  0  0
  5 33  1  6  0  0  0
 34 35  1  0  0  0  0
 35 36  1  0  0  0  0
 36 37  1  0  0  0  0
 37 38  1  0  0  0  0
 38 39  1  0  0  0  0
 39 34  1  0  0  0  0
 34 40  1  1  0  0  0
 36 41  1  1  0  0  0
 35 42  1  6  0  0  0
 37 43  1  6  0  0  0
 40 44  1  0  0  0  0
 38 24  1  1  0  0  0
 45 46  1  0  0  0  0
 46 47  1  0  0  0  0
 47 48  1  0  0  0  0
 48 49  1  0  0  0  0
 49 50  1  0  0  0  0
 50 45  1  0  0  0  0
 45 51  1  1  0  0  0
 47 52  1  1  0  0  0
 46 53  1  6  0  0  0
 48 54  1  6  0  0  0
 51 55  1  0  0  0  0
 49 27  1  1  0  0  0
 56 57  1  0  0  0  0
 57 58  1  0  0  0  0
 58 59  1  0  0  0  0
 59 60  1  0  0  0  0
 60 61  1  0  0  0  0
 61 56  1  0  0  0  0
 56 62  1  1  0  0  0
 58 63  1  1  0  0  0
 57 64  1  6  0  0  0
 59 65  1  6  0  0  0
 62 66  1  0  0  0  0
 60 44  1  1  0  0  0
 14 67  1  0  0  0  0
  8 68  2  0  0  0  0
M  END
>  <cdx:fragmentId>
5

$$$$
