98862.cdx
  Mrv1902 05222410192D          

 16 17  0  0  0  0            999 V2000
    7.4035   -8.1775    0.0000 O   0  0  0  0  0  0  0  0  0  0  0  0
    6.9185   -7.5101    0.0000 C   0  0  0  0  0  0  0  0  0  0  0  0
    6.1339   -7.7650    0.0000 C   0  0  0  0  0  0  0  0  0  0  0  0
    6.1339   -8.5900    0.0000 C   0  0  0  0  0  0  0  0  0  0  0  0
    6.9185   -8.8450    0.0000 C   0  0  1  0  0  0  0  0  0  0  0  0
    5.4195   -9.0025    0.0000 C   0  0  0  0  0  0  0  0  0  0  0  0
    4.7050   -8.5900    0.0000 C   0  0  0  0  0  0  0  0  0  0  0  0
    4.7050   -7.7650    0.0000 C   0  0  0  0  0  0  0  0  0  0  0  0
    5.4195   -7.3525    0.0000 C   0  0  0  0  0  0  0  0  0  0  0  0
    7.1735   -6.7255    0.0000 O   0  0  0  0  0  0  0  0  0  0  0  0
    6.7470   -9.6519    0.0000 O   0  0  0  0  0  0  0  0  0  0  0  0
    7.5316   -9.3970    0.0000 C   0  0  0  0  0  0  0  0  0  0  0  0
    8.3163   -9.1421    0.0000 C   0  0  0  0  0  0  0  0  0  0  0  0
    8.8996   -9.7254    0.0000 C   0  0  0  0  0  0  0  0  0  0  0  0
    9.6965   -9.5119    0.0000 C   0  0  0  0  0  0  0  0  0  0  0  0
    7.3601  -10.2040    0.0000 O   0  0  0  0  0  0  0  0  0  0  0  0
  1  2  1  0  0  0  0
  2  3  1  0  0  0  0
  3  4  2  0  0  0  0
  4  5  1  0  0  0  0
  1  5  1  0  0  0  0
  6  7  2  0  0  0  0
  7  8  1  0  0  0  0
  8  9  2  0  0  0  0
  9  3  1  0  0  0  0
  6  4  1  0  0  0  0
  2 10  2  0  0  0  0
  5 11  1  6  0  0  0
 12 13  1  0  0  0  0
 13 14  1  0  0  0  0
 14 15  1  0  0  0  0
 12 16  2  0  0  0  0
  5 12  1  0  0  0  0
M  END
>  <cdx:fragmentId>
5

$$$$
