98866.cdx
  Mrv1902 05222410182D          

 36 38  0  0  0  0            999 V2000
   12.6644  -10.1697    0.0000 C   0  0  0  0  0  0  0  0  0  0  0  0
   11.9499   -9.7572    0.0000 C   0  0  0  0  0  0  0  0  0  0  0  0
   11.2354  -10.1697    0.0000 C   0  0  0  0  0  0  0  0  0  0  0  0
   10.5210   -9.7572    0.0000 C   0  0  0  0  0  0  0  0  0  0  0  0
   11.9499   -8.9322    0.0000 O   0  0  0  0  0  0  0  0  0  0  0  0
    9.8065  -10.1697    0.0000 C   0  0  0  0  0  0  0  0  0  0  0  0
    9.0920   -9.7572    0.0000 C   0  0  0  0  0  0  0  0  0  0  0  0
    8.3776  -10.1697    0.0000 C   0  0  0  0  0  0  0  0  0  0  0  0
    8.3776  -10.9947    0.0000 C   0  0  0  0  0  0  0  0  0  0  0  0
    9.0920  -11.4072    0.0000 C   0  0  0  0  0  0  0  0  0  0  0  0
    9.8065  -10.9947    0.0000 C   0  0  0  0  0  0  0  0  0  0  0  0
    7.6631  -11.4072    0.0000 O   0  0  0  0  0  0  0  0  0  0  0  0
    6.2397   -9.7603    0.0000 C   0  0  2  0  0  0  0  0  0  0  0  0
    5.5249  -10.1722    0.0000 C   0  0  2  0  0  0  0  0  0  0  0  0
    5.5243  -10.9972    0.0000 C   0  0  1  0  0  0  0  0  0  0  0  0
    6.2384  -11.4103    0.0000 C   0  0  2  0  0  0  0  0  0  0  0  0
    6.9532  -10.9983    0.0000 C   0  0  1  0  0  0  0  0  0  0  0  0
    6.9539  -10.1733    0.0000 O   0  0  0  0  0  0  0  0  0  0  0  0
    6.2404   -8.9353    0.0000 C   0  0  0  0  0  0  0  0  0  0  0  0
    4.8095  -11.4092    0.0000 O   0  0  0  0  0  0  0  0  0  0  0  0
    4.8108   -9.7592    0.0000 O   0  0  0  0  0  0  0  0  0  0  0  0
    6.2378  -12.2353    0.0000 O   0  0  0  0  0  0  0  0  0  0  0  0
    5.5262   -8.5222    0.0000 O   0  0  0  0  0  0  0  0  0  0  0  0
    3.3829   -4.8042    0.0000 C   0  0  0  0  0  0  0  0  0  0  0  0
    2.6692   -5.2180    0.0000 C   0  0  0  0  0  0  0  0  0  0  0  0
    2.6708   -6.0430    0.0000 C   0  0  0  0  0  0  0  0  0  0  0  0
    3.3860   -6.4542    0.0000 C   0  0  0  0  0  0  0  0  0  0  0  0
    4.0997   -6.0403    0.0000 C   0  0  0  0  0  0  0  0  0  0  0  0
    4.0982   -5.2153    0.0000 C   0  0  0  0  0  0  0  0  0  0  0  0
    3.3814   -3.9792    0.0000 O   0  0  0  0  0  0  0  0  0  0  0  0
    2.6661   -3.5680    0.0000 C   0  0  0  0  0  0  0  0  0  0  0  0
    1.9540   -4.8069    0.0000 O   0  0  0  0  0  0  0  0  0  0  0  0
    4.8150   -6.4515    0.0000 C   0  0  0  0  0  0  0  0  0  0  0  0
    4.8165   -7.2765    0.0000 C   0  0  0  0  0  0  0  0  0  0  0  0
    5.5317   -7.6877    0.0000 C   0  0  0  0  0  0  0  0  0  0  0  0
    6.2454   -7.2738    0.0000 O   0  0  0  0  0  0  0  0  0  0  0  0
  1  2  1  0  0  0  0
  2  3  1  0  0  0  0
  3  4  1  0  0  0  0
  2  5  2  0  0  0  0
  6  7  1  0  0  0  0
  7  8  2  0  0  0  0
  8  9  1  0  0  0  0
  9 10  2  0  0  0  0
 10 11  1  0  0  0  0
  6 11  2  0  0  0  0
  9 12  1  0  0  0  0
  4  6  1  0  0  0  0
 13 14  1  0  0  0  0
 14 15  1  0  0  0  0
 15 16  1  0  0  0  0
 16 17  1  0  0  0  0
 17 18  1  0  0  0  0
 18 13  1  0  0  0  0
 13 19  1  1  0  0  0
 15 20  1  1  0  0  0
 14 21  1  6  0  0  0
 16 22  1  6  0  0  0
 19 23  1  0  0  0  0
 17 12  1  1  0  0  0
 24 25  2  0  0  0  0
 25 26  1  0  0  0  0
 26 27  2  0  0  0  0
 27 28  1  0  0  0  0
 28 29  2  0  0  0  0
 29 24  1  0  0  0  0
 24 30  1  0  0  0  0
 30 31  1  0  0  0  0
 25 32  1  0  0  0  0
 28 33  1  0  0  0  0
 33 34  2  0  0  0  0
 34 35  1  0  0  0  0
 35 36  2  0  0  0  0
 35 23  1  0  0  0  0
M  END
>  <cdx:fragmentId>
15

$$$$
