98868.cdx
  Mrv1902 05222410282D          

 36 38  0  0  0  0            999 V2000
   12.4169   -5.9072    0.0000 C   0  0  0  0  0  0  0  0  0  0  0  0
   11.7024   -5.4947    0.0000 C   0  0  0  0  0  0  0  0  0  0  0  0
   10.9879   -5.9072    0.0000 C   0  0  0  0  0  0  0  0  0  0  0  0
   10.2735   -5.4947    0.0000 C   0  0  0  0  0  0  0  0  0  0  0  0
   11.7024   -4.6697    0.0000 O   0  0  0  0  0  0  0  0  0  0  0  0
    9.5590   -5.9072    0.0000 C   0  0  0  0  0  0  0  0  0  0  0  0
    8.8445   -5.4947    0.0000 C   0  0  0  0  0  0  0  0  0  0  0  0
    8.1301   -5.9072    0.0000 C   0  0  0  0  0  0  0  0  0  0  0  0
    8.1301   -6.7322    0.0000 C   0  0  0  0  0  0  0  0  0  0  0  0
    8.8445   -7.1447    0.0000 C   0  0  0  0  0  0  0  0  0  0  0  0
    9.5590   -6.7322    0.0000 C   0  0  0  0  0  0  0  0  0  0  0  0
    7.4156   -7.1447    0.0000 O   0  0  0  0  0  0  0  0  0  0  0  0
    5.9922   -5.4978    0.0000 C   0  0  2  0  0  0  0  0  0  0  0  0
    5.2774   -5.9097    0.0000 C   0  0  2  0  0  0  0  0  0  0  0  0
    5.2768   -6.7347    0.0000 C   0  0  1  0  0  0  0  0  0  0  0  0
    5.9909   -7.1478    0.0000 C   0  0  2  0  0  0  0  0  0  0  0  0
    6.7057   -6.7358    0.0000 C   0  0  1  0  0  0  0  0  0  0  0  0
    6.7064   -5.9108    0.0000 O   0  0  0  0  0  0  0  0  0  0  0  0
    5.9929   -4.6728    0.0000 C   0  0  0  0  0  0  0  0  0  0  0  0
    4.5620   -7.1467    0.0000 O   0  0  0  0  0  0  0  0  0  0  0  0
    4.5633   -5.4967    0.0000 O   0  0  0  0  0  0  0  0  0  0  0  0
    5.9903   -7.9728    0.0000 O   0  0  0  0  0  0  0  0  0  0  0  0
    5.2787   -4.2597    0.0000 O   0  0  0  0  0  0  0  0  0  0  0  0
    3.8623  -11.6856    0.0000 C   0  0  0  0  0  0  0  0  0  0  0  0
    4.5783  -12.0955    0.0000 C   0  0  0  0  0  0  0  0  0  0  0  0
    5.2912  -11.6804    0.0000 C   0  0  0  0  0  0  0  0  0  0  0  0
    5.2883  -10.8554    0.0000 C   0  0  0  0  0  0  0  0  0  0  0  0
    4.5723  -10.4455    0.0000 C   0  0  0  0  0  0  0  0  0  0  0  0
    3.8593  -10.8606    0.0000 C   0  0  0  0  0  0  0  0  0  0  0  0
    4.5693   -9.6205    0.0000 C   0  0  0  0  0  0  0  0  0  0  0  0
    5.2823   -9.2055    0.0000 C   0  0  0  0  0  0  0  0  0  0  0  0
    5.2793   -8.3805    0.0000 C   0  0  0  0  0  0  0  0  0  0  0  0
    4.5633   -7.9705    0.0000 O   0  0  0  0  0  0  0  0  0  0  0  0
    4.5813  -12.9205    0.0000 O   0  0  0  0  0  0  0  0  0  0  0  0
    3.1493  -12.1007    0.0000 O   0  0  0  0  0  0  0  0  0  0  0  0
    3.1493  -12.9257    0.0000 C   0  0  0  0  0  0  0  0  0  0  0  0
  1  2  1  0  0  0  0
  2  3  1  0  0  0  0
  3  4  1  0  0  0  0
  2  5  2  0  0  0  0
  6  7  1  0  0  0  0
  7  8  2  0  0  0  0
  8  9  1  0  0  0  0
  9 10  2  0  0  0  0
 10 11  1  0  0  0  0
  6 11  2  0  0  0  0
  9 12  1  0  0  0  0
  4  6  1  0  0  0  0
 13 14  1  0  0  0  0
 14 15  1  0  0  0  0
 15 16  1  0  0  0  0
 16 17  1  0  0  0  0
 17 18  1  0  0  0  0
 18 13  1  0  0  0  0
 13 19  1  1  0  0  0
 15 20  1  1  0  0  0
 14 21  1  6  0  0  0
 16 22  1  6  0  0  0
 19 23  1  0  0  0  0
 17 12  1  1  0  0  0
 24 25  2  0  0  0  0
 25 26  1  0  0  0  0
 26 27  2  0  0  0  0
 27 28  1  0  0  0  0
 28 29  2  0  0  0  0
 29 24  1  0  0  0  0
 28 30  1  0  0  0  0
 30 31  2  0  0  0  0
 31 32  1  0  0  0  0
 32 33  2  0  0  0  0
 32 22  1  0  0  0  0
 25 34  1  0  0  0  0
 24 35  1  0  0  0  0
 35 36  1  0  0  0  0
M  END
>  <cdx:fragmentId>
15

$$$$
