98869.cdx
  Mrv1902 05222410282D          

 45 48  0  0  0  0            999 V2000
   12.8019   -7.4885    0.0000 C   0  0  0  0  0  0  0  0  0  0  0  0
   12.0874   -7.0760    0.0000 C   0  0  0  0  0  0  0  0  0  0  0  0
   11.3729   -7.4885    0.0000 C   0  0  0  0  0  0  0  0  0  0  0  0
   10.6585   -7.0760    0.0000 C   0  0  0  0  0  0  0  0  0  0  0  0
   12.0874   -6.2510    0.0000 O   0  0  0  0  0  0  0  0  0  0  0  0
    9.9440   -7.4885    0.0000 C   0  0  0  0  0  0  0  0  0  0  0  0
    9.2295   -7.0760    0.0000 C   0  0  0  0  0  0  0  0  0  0  0  0
    8.5151   -7.4885    0.0000 C   0  0  0  0  0  0  0  0  0  0  0  0
    8.5151   -8.3135    0.0000 C   0  0  0  0  0  0  0  0  0  0  0  0
    9.2295   -8.7260    0.0000 C   0  0  0  0  0  0  0  0  0  0  0  0
    9.9440   -8.3135    0.0000 C   0  0  0  0  0  0  0  0  0  0  0  0
    7.8006   -8.7260    0.0000 O   0  0  0  0  0  0  0  0  0  0  0  0
    6.3772   -7.0790    0.0000 C   0  0  2  0  0  0  0  0  0  0  0  0
    5.6624   -7.4910    0.0000 C   0  0  2  0  0  0  0  0  0  0  0  0
    5.6618   -8.3160    0.0000 C   0  0  1  0  0  0  0  0  0  0  0  0
    6.3759   -8.7290    0.0000 C   0  0  2  0  0  0  0  0  0  0  0  0
    7.0907   -8.3171    0.0000 C   0  0  1  0  0  0  0  0  0  0  0  0
    7.0914   -7.4921    0.0000 O   0  0  0  0  0  0  0  0  0  0  0  0
    6.3779   -6.2540    0.0000 C   0  0  0  0  0  0  0  0  0  0  0  0
    4.9470   -8.7279    0.0000 O   0  0  0  0  0  0  0  0  0  0  0  0
    4.9483   -7.0779    0.0000 O   0  0  0  0  0  0  0  0  0  0  0  0
    6.3753   -9.5540    0.0000 O   0  0  0  0  0  0  0  0  0  0  0  0
    5.6637   -5.8410    0.0000 O   0  0  0  0  0  0  0  0  0  0  0  0
    4.9540   -4.5952    0.0000 C   0  0  0  0  0  0  0  0  0  0  0  0
    5.6692   -5.0064    0.0000 C   0  0  0  0  0  0  0  0  0  0  0  0
    6.3829   -4.5926    0.0000 O   0  0  0  0  0  0  0  0  0  0  0  0
    5.6673  -10.7867    0.0000 C   0  0  0  0  0  0  0  0  0  0  0  0
    5.6643   -9.9617    0.0000 C   0  0  0  0  0  0  0  0  0  0  0  0
    4.9483   -9.5518    0.0000 O   0  0  0  0  0  0  0  0  0  0  0  0
    4.9517   -3.7702    0.0000 C   0  0  0  0  0  0  0  0  0  0  0  0
    4.2361   -3.3598    0.0000 C   0  0  0  0  0  0  0  0  0  0  0  0
    3.5227   -3.7702    0.0000 C   0  0  0  0  0  0  0  0  0  0  0  0
    3.5227   -4.5952    0.0000 C   0  0  0  0  0  0  0  0  0  0  0  0
    4.2361   -5.0057    0.0000 C   0  0  0  0  0  0  0  0  0  0  0  0
    2.8086   -5.0082    0.0000 O   0  0  0  0  0  0  0  0  0  0  0  0
    2.8086   -3.3572    0.0000 O   0  0  0  0  0  0  0  0  0  0  0  0
    4.2355   -2.5348    0.0000 O   0  0  0  0  0  0  0  0  0  0  0  0
    4.9521  -11.1979    0.0000 C   0  0  0  0  0  0  0  0  0  0  0  0
    4.9521  -12.0229    0.0000 C   0  0  0  0  0  0  0  0  0  0  0  0
    5.6673  -12.4367    0.0000 C   0  0  0  0  0  0  0  0  0  0  0  0
    6.3825  -12.0229    0.0000 C   0  0  0  0  0  0  0  0  0  0  0  0
    6.3825  -11.1979    0.0000 C   0  0  0  0  0  0  0  0  0  0  0  0
    4.2374  -12.4351    0.0000 O   0  0  0  0  0  0  0  0  0  0  0  0
    5.6673  -13.2617    0.0000 O   0  0  0  0  0  0  0  0  0  0  0  0
    7.0971  -12.4351    0.0000 O   0  0  0  0  0  0  0  0  0  0  0  0
  1  2  1  0  0  0  0
  2  3  1  0  0  0  0
  3  4  1  0  0  0  0
  2  5  2  0  0  0  0
  6  7  1  0  0  0  0
  7  8  2  0  0  0  0
  8  9  1  0  0  0  0
  9 10  2  0  0  0  0
 10 11  1  0  0  0  0
  6 11  2  0  0  0  0
  9 12  1  0  0  0  0
  4  6  1  0  0  0  0
 13 14  1  0  0  0  0
 14 15  1  0  0  0  0
 15 16  1  0  0  0  0
 16 17  1  0  0  0  0
 17 18  1  0  0  0  0
 18 13  1  0  0  0  0
 13 19  1  1  0  0  0
 15 20  1  1  0  0  0
 14 21  1  6  0  0  0
 16 22  1  6  0  0  0
 19 23  1  0  0  0  0
 17 12  1  1  0  0  0
 24 25  1  0  0  0  0
 25 26  2  0  0  0  0
 25 23  1  0  0  0  0
 27 28  1  0  0  0  0
 28 29  2  0  0  0  0
 28 22  1  0  0  0  0
 24 30  2  0  0  0  0
 30 31  1  0  0  0  0
 31 32  2  0  0  0  0
 32 33  1  0  0  0  0
 33 34  2  0  0  0  0
 34 24  1  0  0  0  0
 33 35  1  0  0  0  0
 32 36  1  0  0  0  0
 31 37  1  0  0  0  0
 27 38  2  0  0  0  0
 38 39  1  0  0  0  0
 39 40  2  0  0  0  0
 40 41  1  0  0  0  0
 41 42  2  0  0  0  0
 42 27  1  0  0  0  0
 39 43  1  0  0  0  0
 40 44  1  0  0  0  0
 41 45  1  0  0  0  0
M  END
>  <cdx:fragmentId>
15

$$$$
