98861.cdx
  Mrv1902 05222410202D          

 22 24  0  0  0  0            999 V2000
    8.9818   -7.6397    0.0000 C   0  0  0  0  0  0  0  0  0  0  0  0
    9.6963   -8.0522    0.0000 C   0  0  0  0  0  0  0  0  0  0  0  0
    9.6963   -8.8772    0.0000 C   0  0  0  0  0  0  0  0  0  0  0  0
    8.9818   -9.2897    0.0000 C   0  0  0  0  0  0  0  0  0  0  0  0
    8.2674   -8.8772    0.0000 C   0  0  0  0  0  0  0  0  0  0  0  0
    7.5529   -9.2897    0.0000 C   0  0  0  0  0  0  0  0  0  0  0  0
    6.8384   -8.8772    0.0000 C   0  0  0  0  0  0  0  0  0  0  0  0
    6.1239   -9.2897    0.0000 C   0  0  0  0  0  0  0  0  0  0  0  0
    5.4095   -8.8772    0.0000 C   0  0  0  0  0  0  0  0  0  0  0  0
    5.4095   -8.0522    0.0000 C   0  0  0  0  0  0  0  0  0  0  0  0
    6.1239   -7.6397    0.0000 C   0  0  0  0  0  0  0  0  0  0  0  0
    6.8384   -8.0522    0.0000 C   0  0  0  0  0  0  0  0  0  0  0  0
    7.5529   -7.6397    0.0000 C   0  0  0  0  0  0  0  0  0  0  0  0
    8.2674   -8.0522    0.0000 C   0  0  0  0  0  0  0  0  0  0  0  0
    7.5529   -6.8147    0.0000 O   0  0  0  0  0  0  0  0  0  0  0  0
    7.5529  -10.1147    0.0000 O   0  0  0  0  0  0  0  0  0  0  0  0
    4.6950   -9.2897    0.0000 C   0  0  0  0  0  0  0  0  0  0  0  0
    3.9805   -8.8772    0.0000 O   0  0  0  0  0  0  0  0  0  0  0  0
    6.1239   -6.8147    0.0000 O   0  0  0  0  0  0  0  0  0  0  0  0
   10.4108   -9.2897    0.0000 O   0  0  0  0  0  0  0  0  0  0  0  0
    8.9818   -6.8147    0.0000 O   0  0  0  0  0  0  0  0  0  0  0  0
    5.4095   -6.4022    0.0000 C   0  0  0  0  0  0  0  0  0  0  0  0
  1  2  1  0  0  0  0
  2  3  2  0  0  0  0
  3  4  1  0  0  0  0
  4  5  2  0  0  0  0
  5  6  1  0  0  0  0
  6  7  1  0  0  0  0
  7  8  1  0  0  0  0
  8  9  2  0  0  0  0
  9 10  1  0  0  0  0
 10 11  2  0  0  0  0
 11 12  1  0  0  0  0
  7 12  2  0  0  0  0
 12 13  1  0  0  0  0
 13 14  1  0  0  0  0
  5 14  1  0  0  0  0
  1 14  2  0  0  0  0
 13 15  2  0  0  0  0
  6 16  2  0  0  0  0
 17 18  1  0  0  0  0
  9 17  1  0  0  0  0
 11 19  1  0  0  0  0
  3 20  1  0  0  0  0
  1 21  1  0  0  0  0
 19 22  1  0  0  0  0
M  END
>  <cdx:fragmentId>
5

$$$$
