98865.cdx
  Mrv1902 05222410182D          

 29 33  0  0  0  0            999 V2000
    4.9962   -7.8788    0.0000 C   0  0  0  0  0  0  0  0  0  0  0  0
    4.9962   -8.7037    0.0000 C   0  0  0  0  0  0  0  0  0  0  0  0
    5.7106   -9.1162    0.0000 C   0  0  0  0  0  0  0  0  0  0  0  0
    6.4251   -8.7037    0.0000 C   0  0  0  0  0  0  0  0  0  0  0  0
    6.4251   -7.8788    0.0000 C   0  0  0  0  0  0  0  0  0  0  0  0
    5.7106   -7.4663    0.0000 C   0  0  0  0  0  0  0  0  0  0  0  0
    7.1396   -9.1162    0.0000 C   0  0  0  0  0  0  0  0  0  0  0  0
    7.8541   -8.7037    0.0000 C   0  0  0  0  0  0  0  0  0  0  0  0
    7.8541   -7.8788    0.0000 C   0  0  0  0  0  0  0  0  0  0  0  0
    7.1396   -7.4663    0.0000 C   0  0  0  0  0  0  0  0  0  0  0  0
    5.5391   -6.6593    0.0000 C   0  0  0  0  0  0  0  0  0  0  0  0
    4.7186   -6.5730    0.0000 O   0  0  0  0  0  0  0  0  0  0  0  0
    4.3831   -7.3267    0.0000 C   0  0  0  0  0  0  0  0  0  0  0  0
    8.6387   -8.9587    0.0000 C   0  0  0  0  0  0  0  0  0  0  0  0
    9.1236   -8.2912    0.0000 O   0  0  0  0  0  0  0  0  0  0  0  0
    8.8936   -6.8392    0.0000 C   0  0  0  0  0  0  0  0  0  0  0  0
    6.0912   -6.0462    0.0000 O   0  0  0  0  0  0  0  0  0  0  0  0
    3.5761   -7.4982    0.0000 C   0  0  0  0  0  0  0  0  0  0  0  0
    2.9927   -6.9149    0.0000 C   0  0  0  0  0  0  0  0  0  0  0  0
    2.1959   -7.1284    0.0000 C   0  0  0  0  0  0  0  0  0  0  0  0
    1.6125   -6.5450    0.0000 C   0  0  0  0  0  0  0  0  0  0  0  0
   10.7009   -5.6152    0.0000 C   0  0  0  0  0  0  0  0  0  0  0  0
    9.9040   -5.8288    0.0000 C   0  0  0  0  0  0  0  0  0  0  0  0
    9.6905   -6.6257    0.0000 C   0  0  0  0  0  0  0  0  0  0  0  0
    8.6387   -7.6238    0.0000 C   0  0  0  0  0  0  0  0  0  0  0  0
    8.8936   -9.7433    0.0000 O   0  0  0  0  0  0  0  0  0  0  0  0
    6.7925   -8.5250    0.0000 C   0  0  2  0  0  0  0  0  0  0  0  0
    5.9675   -8.5250    0.0000 O   0  0  0  0  0  0  0  0  0  0  0  0
    6.7925   -8.0575    0.0000 C   0  0  0  0  0  0  0  0  0  0  0  0
  1  2  1  0  0  0  0
  2  3  1  0  0  0  0
  3  4  1  0  0  0  0
  4  5  1  0  0  0  0
  5  6  1  0  0  0  0
  6  1  2  0  0  0  0
  4  7  1  0  0  0  0
  7  8  1  0  0  0  0
  8  9  2  0  0  0  0
  9 10  1  0  0  0  0
 10  5  1  0  0  0  0
  6 11  1  0  0  0  0
 11 12  1  0  0  0  0
 12 13  1  0  0  0  0
 13  1  1  0  0  0  0
  8 14  1  0  0  0  0
 14 15  1  0  0  0  0
 15 25  1  0  0  0  0
 25  9  1  0  0  0  0
 11 17  2  0  0  0  0
 13 18  2  0  0  0  0
 18 19  1  0  0  0  0
 19 20  1  0  0  0  0
 20 21  1  0  0  0  0
 23 22  1  0  0  0  0
 16 24  1  0  0  0  0
 24 23  1  0  0  0  0
 25 16  2  0  0  0  0
 14 26  2  0  0  0  0
  7 27  1  0  0  0  0
 27 28  1  6  0  0  0
 10 29  1  0  0  0  0
 29 27  1  0  0  0  0
M  END
>  <cdx:fragmentId>
5

$$$$
