98871.cdx
  Mrv1902 05222410182D          

 34 36  0  0  0  0            999 V2000
   12.0731   -6.3335    0.0000 C   0  0  0  0  0  0  0  0  0  0  0  0
   11.3587   -5.9210    0.0000 C   0  0  0  0  0  0  0  0  0  0  0  0
   10.6442   -6.3335    0.0000 C   0  0  0  0  0  0  0  0  0  0  0  0
    9.9297   -5.9210    0.0000 C   0  0  0  0  0  0  0  0  0  0  0  0
   11.3587   -5.0960    0.0000 O   0  0  0  0  0  0  0  0  0  0  0  0
    9.2153   -6.3335    0.0000 C   0  0  0  0  0  0  0  0  0  0  0  0
    8.5008   -5.9210    0.0000 C   0  0  0  0  0  0  0  0  0  0  0  0
    7.7863   -6.3335    0.0000 C   0  0  0  0  0  0  0  0  0  0  0  0
    7.7863   -7.1585    0.0000 C   0  0  0  0  0  0  0  0  0  0  0  0
    8.5008   -7.5710    0.0000 C   0  0  0  0  0  0  0  0  0  0  0  0
    9.2153   -7.1585    0.0000 C   0  0  0  0  0  0  0  0  0  0  0  0
    7.0718   -7.5710    0.0000 O   0  0  0  0  0  0  0  0  0  0  0  0
    5.6485   -5.9240    0.0000 C   0  0  2  0  0  0  0  0  0  0  0  0
    4.9337   -6.3360    0.0000 C   0  0  2  0  0  0  0  0  0  0  0  0
    4.9330   -7.1610    0.0000 C   0  0  1  0  0  0  0  0  0  0  0  0
    5.6472   -7.5740    0.0000 C   0  0  2  0  0  0  0  0  0  0  0  0
    6.3620   -7.1621    0.0000 C   0  0  1  0  0  0  0  0  0  0  0  0
    6.3626   -6.3371    0.0000 O   0  0  0  0  0  0  0  0  0  0  0  0
    5.6491   -5.0990    0.0000 C   0  0  0  0  0  0  0  0  0  0  0  0
    4.2182   -7.5729    0.0000 O   0  0  0  0  0  0  0  0  0  0  0  0
    4.2195   -5.9229    0.0000 O   0  0  0  0  0  0  0  0  0  0  0  0
    5.6465   -8.3990    0.0000 O   0  0  0  0  0  0  0  0  0  0  0  0
    4.9350   -4.6860    0.0000 O   0  0  0  0  0  0  0  0  0  0  0  0
    4.9385   -9.6317    0.0000 C   0  0  0  0  0  0  0  0  0  0  0  0
    4.9355   -8.8067    0.0000 C   0  0  0  0  0  0  0  0  0  0  0  0
    4.2196   -8.3968    0.0000 O   0  0  0  0  0  0  0  0  0  0  0  0
    4.2233  -10.0429    0.0000 C   0  0  0  0  0  0  0  0  0  0  0  0
    4.2233  -10.8679    0.0000 C   0  0  0  0  0  0  0  0  0  0  0  0
    3.5089  -11.2804    0.0000 C   0  0  0  0  0  0  0  0  0  0  0  0
    3.5089  -12.1054    0.0000 C   0  0  0  0  0  0  0  0  0  0  0  0
    4.2233  -12.5179    0.0000 C   0  0  0  0  0  0  0  0  0  0  0  0
    4.9378  -12.1054    0.0000 C   0  0  0  0  0  0  0  0  0  0  0  0
    4.9378  -11.2804    0.0000 C   0  0  0  0  0  0  0  0  0  0  0  0
    4.2233  -13.3429    0.0000 O   0  0  0  0  0  0  0  0  0  0  0  0
  1  2  1  0  0  0  0
  2  3  1  0  0  0  0
  3  4  1  0  0  0  0
  2  5  2  0  0  0  0
  6  7  1  0  0  0  0
  7  8  2  0  0  0  0
  8  9  1  0  0  0  0
  9 10  2  0  0  0  0
 10 11  1  0  0  0  0
  6 11  2  0  0  0  0
  9 12  1  0  0  0  0
  4  6  1  0  0  0  0
 13 14  1  0  0  0  0
 14 15  1  0  0  0  0
 15 16  1  0  0  0  0
 16 17  1  0  0  0  0
 17 18  1  0  0  0  0
 18 13  1  0  0  0  0
 13 19  1  1  0  0  0
 15 20  1  1  0  0  0
 14 21  1  6  0  0  0
 16 22  1  6  0  0  0
 19 23  1  0  0  0  0
 17 12  1  1  0  0  0
 24 25  1  0  0  0  0
 25 26  2  0  0  0  0
 25 22  1  0  0  0  0
 24 27  2  0  0  0  0
 27 28  1  0  0  0  0
 28 29  2  0  0  0  0
 29 30  1  0  0  0  0
 30 31  2  0  0  0  0
 31 32  1  0  0  0  0
 32 33  2  0  0  0  0
 33 28  1  0  0  0  0
 31 34  1  0  0  0  0
M  END
>  <cdx:fragmentId>
15

$$$$
