98878.cdx
  Mrv1902 05222410262D          

 38 40  0  0  0  0            999 V2000
    6.5601   -4.3993    0.0000 O   0  0  0  0  0  0  0  0  0  0  0  0
    7.2929   -5.6260    0.0000 O   0  0  0  0  0  0  0  0  0  0  0  0
    6.5724   -5.2242    0.0000 C   0  0  0  0  0  0  0  0  0  0  0  0
    5.8641   -5.6473    0.0000 C   0  0  0  0  0  0  0  0  0  0  0  0
    5.1436   -5.2455    0.0000 C   0  0  0  0  0  0  0  0  0  0  0  0
    3.7394   -6.9166    0.0000 C   0  0  0  0  0  0  0  0  0  0  0  0
    4.4477   -6.4935    0.0000 C   0  0  0  0  0  0  0  0  0  0  0  0
    4.4354   -5.6686    0.0000 C   0  0  0  0  0  0  0  0  0  0  0  0
    3.7148   -5.2668    0.0000 C   0  0  0  0  0  0  0  0  0  0  0  0
    2.3106   -6.9379    0.0000 O   0  0  0  0  0  0  0  0  0  0  0  0
    3.0189   -6.5148    0.0000 C   0  0  0  0  0  0  0  0  0  0  0  0
    3.0066   -5.6899    0.0000 C   0  0  0  0  0  0  0  0  0  0  0  0
    1.5901   -6.5362    0.0000 C   0  0  0  0  0  0  0  0  0  0  0  0
    8.0012   -5.2029    0.0000 C   0  0  2  0  0  0  0  0  0  0  0  0
    8.7217   -5.6047    0.0000 C   0  0  1  0  0  0  0  0  0  0  0  0
    8.7340   -6.4296    0.0000 O   0  0  0  0  0  0  0  0  0  0  0  0
    9.4546   -6.8314    0.0000 C   0  0  0  0  0  0  0  0  0  0  0  0
    9.4669   -7.6563    0.0000 C   0  0  0  0  0  0  0  0  0  0  0  0
   10.1628   -6.4083    0.0000 O   0  0  0  0  0  0  0  0  0  0  0  0
    8.7586   -8.0794    0.0000 C   0  0  0  0  0  0  0  0  0  0  0  0
    8.7709   -8.9043    0.0000 C   0  0  0  0  0  0  0  0  0  0  0  0
    8.0627   -9.3274    0.0000 C   0  0  0  0  0  0  0  0  0  0  0  0
    8.0750  -10.1523    0.0000 C   0  0  0  0  0  0  0  0  0  0  0  0
    8.7956  -10.5541    0.0000 C   0  0  0  0  0  0  0  0  0  0  0  0
    9.5038  -10.1310    0.0000 C   0  0  0  0  0  0  0  0  0  0  0  0
    9.4915   -9.3061    0.0000 C   0  0  0  0  0  0  0  0  0  0  0  0
    8.8079  -11.3790    0.0000 O   0  0  0  0  0  0  0  0  0  0  0  0
    8.0996  -11.8021    0.0000 C   0  0  0  0  0  0  0  0  0  0  0  0
    9.4299   -5.1815    0.0000 C   0  0  2  0  0  0  0  0  0  0  0  0
    9.4176   -4.3566    0.0000 C   0  0  1  0  0  0  0  0  0  0  0  0
    8.6971   -3.9548    0.0000 O   0  0  0  0  0  0  0  0  0  0  0  0
    7.9889   -4.3780    0.0000 C   0  0  1  0  0  0  0  0  0  0  0  0
   11.5793   -5.6028    0.0000 C   0  0  0  0  0  0  0  0  0  0  0  0
   10.8817   -4.3557    0.0000 O   0  0  0  0  0  0  0  0  0  0  0  0
   10.8705   -5.1806    0.0000 C   0  0  0  0  0  0  0  0  0  0  0  0
   10.1505   -5.5833    0.0000 O   0  0  0  0  0  0  0  0  0  0  0  0
   10.1259   -3.9335    0.0000 O   0  0  0  0  0  0  0  0  0  0  0  0
    7.2683   -3.9762    0.0000 C   0  0  0  0  0  0  0  0  0  0  0  0
  3  1  2  0  0  0  0
  3  2  1  0  0  0  0
  4  3  1  0  0  0  0
  5  4  2  0  0  0  0
  8  5  1  0  0  0  0
  6 11  1  0  0  0  0
  7  6  2  0  0  0  0
  8  7  1  0  0  0  0
  9  8  2  0  0  0  0
 12  9  1  0  0  0  0
 10 13  1  0  0  0  0
 11 10  1  0  0  0  0
 12 11  2  0  0  0  0
 14  2  1  1  0  0  0
 14 15  1  0  0  0  0
 15 16  1  6  0  0  0
 16 17  1  0  0  0  0
 17 18  1  0  0  0  0
 17 19  2  0  0  0  0
 18 20  2  0  0  0  0
 20 21  1  0  0  0  0
 21 22  2  0  0  0  0
 22 23  1  0  0  0  0
 23 24  2  0  0  0  0
 24 25  1  0  0  0  0
 25 26  2  0  0  0  0
 26 21  1  0  0  0  0
 24 27  1  0  0  0  0
 27 28  1  0  0  0  0
 15 29  1  0  0  0  0
 29 30  1  0  0  0  0
 30 31  1  0  0  0  0
 31 32  1  0  0  0  0
 32 14  1  0  0  0  0
 35 33  1  0  0  0  0
 29 36  1  6  0  0  0
 35 34  2  0  0  0  0
 36 35  1  0  0  0  0
 30 37  1  1  0  0  0
 32 38  1  6  0  0  0
M  END
>  <cdx:fragmentId>
5

$$$$
