98874.cdx
  Mrv1902 05222410202D          

 32 34  0  0  0  0            999 V2000
   12.7331   -9.3447    0.0000 C   0  0  0  0  0  0  0  0  0  0  0  0
   12.0187   -8.9322    0.0000 C   0  0  0  0  0  0  0  0  0  0  0  0
   11.3042   -9.3447    0.0000 C   0  0  0  0  0  0  0  0  0  0  0  0
   10.5897   -8.9322    0.0000 C   0  0  0  0  0  0  0  0  0  0  0  0
   12.0187   -8.1072    0.0000 O   0  0  0  0  0  0  0  0  0  0  0  0
    9.8753   -9.3447    0.0000 C   0  0  0  0  0  0  0  0  0  0  0  0
    9.1608   -8.9322    0.0000 C   0  0  0  0  0  0  0  0  0  0  0  0
    8.4463   -9.3447    0.0000 C   0  0  0  0  0  0  0  0  0  0  0  0
    8.4463  -10.1697    0.0000 C   0  0  0  0  0  0  0  0  0  0  0  0
    9.1608  -10.5822    0.0000 C   0  0  0  0  0  0  0  0  0  0  0  0
    9.8753  -10.1697    0.0000 C   0  0  0  0  0  0  0  0  0  0  0  0
    7.7318  -10.5822    0.0000 O   0  0  0  0  0  0  0  0  0  0  0  0
    6.3085   -8.9353    0.0000 C   0  0  2  0  0  0  0  0  0  0  0  0
    5.5937   -9.3472    0.0000 C   0  0  2  0  0  0  0  0  0  0  0  0
    5.5930  -10.1722    0.0000 C   0  0  1  0  0  0  0  0  0  0  0  0
    6.3072  -10.5853    0.0000 C   0  0  2  0  0  0  0  0  0  0  0  0
    7.0220  -10.1733    0.0000 C   0  0  1  0  0  0  0  0  0  0  0  0
    7.0226   -9.3483    0.0000 O   0  0  0  0  0  0  0  0  0  0  0  0
    6.3091   -8.1103    0.0000 C   0  0  0  0  0  0  0  0  0  0  0  0
    4.8782  -10.5842    0.0000 O   0  0  0  0  0  0  0  0  0  0  0  0
    4.8795   -8.9342    0.0000 O   0  0  0  0  0  0  0  0  0  0  0  0
    6.3065  -11.4103    0.0000 O   0  0  0  0  0  0  0  0  0  0  0  0
    5.5950   -7.6972    0.0000 O   0  0  0  0  0  0  0  0  0  0  0  0
    4.8852   -6.4515    0.0000 C   0  0  0  0  0  0  0  0  0  0  0  0
    5.6005   -6.8627    0.0000 C   0  0  0  0  0  0  0  0  0  0  0  0
    6.3142   -6.4488    0.0000 O   0  0  0  0  0  0  0  0  0  0  0  0
    4.8829   -5.6265    0.0000 C   0  0  0  0  0  0  0  0  0  0  0  0
    4.1673   -5.2160    0.0000 C   0  0  0  0  0  0  0  0  0  0  0  0
    3.4540   -5.6265    0.0000 C   0  0  0  0  0  0  0  0  0  0  0  0
    3.4540   -6.4515    0.0000 C   0  0  0  0  0  0  0  0  0  0  0  0
    4.1673   -6.8620    0.0000 C   0  0  0  0  0  0  0  0  0  0  0  0
    2.7398   -5.2135    0.0000 O   0  0  0  0  0  0  0  0  0  0  0  0
  1  2  1  0  0  0  0
  2  3  1  0  0  0  0
  3  4  1  0  0  0  0
  2  5  2  0  0  0  0
  6  7  1  0  0  0  0
  7  8  2  0  0  0  0
  8  9  1  0  0  0  0
  9 10  2  0  0  0  0
 10 11  1  0  0  0  0
  6 11  2  0  0  0  0
  9 12  1  0  0  0  0
  4  6  1  0  0  0  0
 13 14  1  0  0  0  0
 14 15  1  0  0  0  0
 15 16  1  0  0  0  0
 16 17  1  0  0  0  0
 17 18  1  0  0  0  0
 18 13  1  0  0  0  0
 13 19  1  1  0  0  0
 15 20  1  1  0  0  0
 14 21  1  6  0  0  0
 16 22  1  6  0  0  0
 19 23  1  0  0  0  0
 17 12  1  1  0  0  0
 24 25  1  0  0  0  0
 25 26  2  0  0  0  0
 25 23  1  0  0  0  0
 24 27  2  0  0  0  0
 27 28  1  0  0  0  0
 28 29  2  0  0  0  0
 29 30  1  0  0  0  0
 30 31  2  0  0  0  0
 31 24  1  0  0  0  0
 29 32  1  0  0  0  0
M  END
>  <cdx:fragmentId>
15

$$$$
