98870.cdx
  Mrv1902 05222410182D          

 45 48  0  0  0  0            999 V2000
   12.6919   -7.8597    0.0000 C   0  0  0  0  0  0  0  0  0  0  0  0
   11.9774   -7.4472    0.0000 C   0  0  0  0  0  0  0  0  0  0  0  0
   11.2629   -7.8597    0.0000 C   0  0  0  0  0  0  0  0  0  0  0  0
   10.5485   -7.4472    0.0000 C   0  0  0  0  0  0  0  0  0  0  0  0
   11.9774   -6.6222    0.0000 O   0  0  0  0  0  0  0  0  0  0  0  0
    9.8340   -7.8597    0.0000 C   0  0  0  0  0  0  0  0  0  0  0  0
    9.1195   -7.4472    0.0000 C   0  0  0  0  0  0  0  0  0  0  0  0
    8.4051   -7.8597    0.0000 C   0  0  0  0  0  0  0  0  0  0  0  0
    8.4051   -8.6847    0.0000 C   0  0  0  0  0  0  0  0  0  0  0  0
    9.1195   -9.0972    0.0000 C   0  0  0  0  0  0  0  0  0  0  0  0
    9.8340   -8.6847    0.0000 C   0  0  0  0  0  0  0  0  0  0  0  0
    7.6906   -9.0972    0.0000 O   0  0  0  0  0  0  0  0  0  0  0  0
    6.2672   -7.4503    0.0000 C   0  0  2  0  0  0  0  0  0  0  0  0
    5.5524   -7.8622    0.0000 C   0  0  2  0  0  0  0  0  0  0  0  0
    5.5518   -8.6872    0.0000 C   0  0  1  0  0  0  0  0  0  0  0  0
    6.2659   -9.1003    0.0000 C   0  0  2  0  0  0  0  0  0  0  0  0
    6.9807   -8.6883    0.0000 C   0  0  1  0  0  0  0  0  0  0  0  0
    6.9814   -7.8633    0.0000 O   0  0  0  0  0  0  0  0  0  0  0  0
    6.2679   -6.6253    0.0000 C   0  0  0  0  0  0  0  0  0  0  0  0
    4.8370   -9.0992    0.0000 O   0  0  0  0  0  0  0  0  0  0  0  0
    4.8383   -7.4492    0.0000 O   0  0  0  0  0  0  0  0  0  0  0  0
    6.2653   -9.9253    0.0000 O   0  0  0  0  0  0  0  0  0  0  0  0
    5.5537   -6.2122    0.0000 O   0  0  0  0  0  0  0  0  0  0  0  0
    4.8440   -4.9665    0.0000 C   0  0  0  0  0  0  0  0  0  0  0  0
    5.5592   -5.3777    0.0000 C   0  0  0  0  0  0  0  0  0  0  0  0
    6.2729   -4.9638    0.0000 O   0  0  0  0  0  0  0  0  0  0  0  0
    5.5573  -11.1580    0.0000 C   0  0  0  0  0  0  0  0  0  0  0  0
    5.5543  -10.3330    0.0000 C   0  0  0  0  0  0  0  0  0  0  0  0
    4.8383   -9.9230    0.0000 O   0  0  0  0  0  0  0  0  0  0  0  0
    4.8417   -4.1415    0.0000 C   0  0  0  0  0  0  0  0  0  0  0  0
    4.8421  -11.5692    0.0000 C   0  0  0  0  0  0  0  0  0  0  0  0
    4.8421  -12.3942    0.0000 C   0  0  0  0  0  0  0  0  0  0  0  0
    5.5573  -12.8080    0.0000 C   0  0  0  0  0  0  0  0  0  0  0  0
    6.2725  -12.3942    0.0000 C   0  0  0  0  0  0  0  0  0  0  0  0
    6.2725  -11.5692    0.0000 C   0  0  0  0  0  0  0  0  0  0  0  0
    4.1274  -12.8063    0.0000 O   0  0  0  0  0  0  0  0  0  0  0  0
    5.5573  -13.6330    0.0000 O   0  0  0  0  0  0  0  0  0  0  0  0
    6.9871  -12.8063    0.0000 O   0  0  0  0  0  0  0  0  0  0  0  0
    4.1261   -3.7310    0.0000 C   0  0  0  0  0  0  0  0  0  0  0  0
    4.1226   -2.9060    0.0000 C   0  0  0  0  0  0  0  0  0  0  0  0
    3.4064   -2.4965    0.0000 C   0  0  0  0  0  0  0  0  0  0  0  0
    2.6936   -2.9060    0.0000 C   0  0  0  0  0  0  0  0  0  0  0  0
    2.6936   -3.7310    0.0000 C   0  0  0  0  0  0  0  0  0  0  0  0
    3.4064   -4.1405    0.0000 C   0  0  0  0  0  0  0  0  0  0  0  0
    1.9796   -2.4928    0.0000 O   0  0  0  0  0  0  0  0  0  0  0  0
  1  2  1  0  0  0  0
  2  3  1  0  0  0  0
  3  4  1  0  0  0  0
  2  5  2  0  0  0  0
  6  7  1  0  0  0  0
  7  8  2  0  0  0  0
  8  9  1  0  0  0  0
  9 10  2  0  0  0  0
 10 11  1  0  0  0  0
  6 11  2  0  0  0  0
  9 12  1  0  0  0  0
  4  6  1  0  0  0  0
 13 14  1  0  0  0  0
 14 15  1  0  0  0  0
 15 16  1  0  0  0  0
 16 17  1  0  0  0  0
 17 18  1  0  0  0  0
 18 13  1  0  0  0  0
 13 19  1  1  0  0  0
 15 20  1  1  0  0  0
 14 21  1  6  0  0  0
 16 22  1  6  0  0  0
 19 23  1  0  0  0  0
 17 12  1  1  0  0  0
 24 25  1  0  0  0  0
 25 26  2  0  0  0  0
 25 23  1  0  0  0  0
 27 28  1  0  0  0  0
 28 29  2  0  0  0  0
 28 22  1  0  0  0  0
 24 30  2  0  0  0  0
 27 31  2  0  0  0  0
 31 32  1  0  0  0  0
 32 33  2  0  0  0  0
 33 34  1  0  0  0  0
 34 35  2  0  0  0  0
 35 27  1  0  0  0  0
 32 36  1  0  0  0  0
 33 37  1  0  0  0  0
 34 38  1  0  0  0  0
 30 39  1  0  0  0  0
 39 40  2  0  0  0  0
 40 41  1  0  0  0  0
 41 42  2  0  0  0  0
 42 43  1  0  0  0  0
 43 44  2  0  0  0  0
 44 39  1  0  0  0  0
 42 45  1  0  0  0  0
M  END
>  <cdx:fragmentId>
15

$$$$
