dihydrokaempferol-7-O-glucoside.cdx
  Mrv1902 05222410242D          

 33 36  0  0  0  0            999 V2000
    6.0877   -5.9813    0.0000 C   0  0  0  0  0  0  0  0  0  0  0  0
    6.0877   -6.8062    0.0000 C   0  0  0  0  0  0  0  0  0  0  0  0
    6.8021   -7.2188    0.0000 C   0  0  0  0  0  0  0  0  0  0  0  0
    7.5166   -6.8062    0.0000 C   0  0  0  0  0  0  0  0  0  0  0  0
    7.5166   -5.9813    0.0000 C   0  0  0  0  0  0  0  0  0  0  0  0
    6.8021   -5.5687    0.0000 C   0  0  0  0  0  0  0  0  0  0  0  0
    8.2311   -7.2188    0.0000 C   0  0  0  0  0  0  0  0  0  0  0  0
    8.9455   -6.8062    0.0000 C   0  0  0  0  0  0  0  0  0  0  0  0
    8.9455   -5.9813    0.0000 C   0  0  0  0  0  0  0  0  0  0  0  0
    8.2311   -5.5687    0.0000 O   0  0  0  0  0  0  0  0  0  0  0  0
    9.6600   -5.5687    0.0000 C   0  0  0  0  0  0  0  0  0  0  0  0
   10.3745   -5.9813    0.0000 C   0  0  0  0  0  0  0  0  0  0  0  0
   11.0890   -5.5687    0.0000 C   0  0  0  0  0  0  0  0  0  0  0  0
   11.0890   -4.7438    0.0000 C   0  0  0  0  0  0  0  0  0  0  0  0
   10.3745   -4.3313    0.0000 C   0  0  0  0  0  0  0  0  0  0  0  0
    9.6600   -4.7438    0.0000 C   0  0  0  0  0  0  0  0  0  0  0  0
    6.8021   -8.0437    0.0000 O   0  0  0  0  0  0  0  0  0  0  0  0
    8.2311   -8.0437    0.0000 O   0  0  0  0  0  0  0  0  0  0  0  0
    9.6600   -7.2188    0.0000 O   0  0  0  0  0  0  0  0  0  0  0  0
   11.8034   -4.3313    0.0000 O   0  0  0  0  0  0  0  0  0  0  0  0
   12.5179   -3.9187    0.0000 C   0  0  0  0  0  0  0  0  0  0  0  0
    3.0973   -5.9760    0.0000 C   0  0  2  0  0  0  0  0  0  0  0  0
    3.0969   -6.8010    0.0000 C   0  0  2  0  0  0  0  0  0  0  0  0
    3.8112   -7.2139    0.0000 C   0  0  1  0  0  0  0  0  0  0  0  0
    4.5259   -6.8017    0.0000 C   0  0  2  0  0  0  0  0  0  0  0  0
    4.5263   -5.9767    0.0000 C   0  0  1  0  0  0  0  0  0  0  0  0
    3.8120   -5.5639    0.0000 O   0  0  0  0  0  0  0  0  0  0  0  0
    5.2410   -5.5646    0.0000 O   0  0  0  0  0  0  0  0  0  0  0  0
    2.3831   -5.5631    0.0000 C   0  0  0  0  0  0  0  0  0  0  0  0
    3.8108   -8.0389    0.0000 O   0  0  0  0  0  0  0  0  0  0  0  0
    5.2401   -7.2146    0.0000 O   0  0  0  0  0  0  0  0  0  0  0  0
    2.3822   -7.2131    0.0000 O   0  0  0  0  0  0  0  0  0  0  0  0
    2.3835   -4.7381    0.0000 O   0  0  0  0  0  0  0  0  0  0  0  0
  1  2  2  0  0  0  0
  2  3  1  0  0  0  0
  3  4  2  0  0  0  0
  4  5  1  0  0  0  0
  5  6  2  0  0  0  0
  6  1  1  0  0  0  0
  4  7  1  0  0  0  0
  7  8  1  0  0  0  0
  8  9  1  0  0  0  0
  9 10  1  0  0  0  0
 10  5  1  0  0  0  0
  9 11  1  0  0  0  0
 11 12  2  0  0  0  0
 12 13  1  0  0  0  0
 13 14  2  0  0  0  0
 14 15  1  0  0  0  0
 15 16  2  0  0  0  0
 16 11  1  0  0  0  0
  3 17  1  0  0  0  0
  7 18  2  0  0  0  0
  8 19  1  0  0  0  0
 14 20  1  0  0  0  0
 22 23  1  0  0  0  0
 23 24  1  0  0  0  0
 24 25  1  0  0  0  0
 25 26  1  0  0  0  0
 26 27  1  0  0  0  0
 27 22  1  0  0  0  0
 26 28  1  1  0  0  0
 22 29  1  1  0  0  0
 24 30  1  1  0  0  0
 25 31  1  6  0  0  0
 23 32  1  6  0  0  0
 29 33  1  0  0  0  0
  1 28  1  0  0  0  0
 20 21  1  0  0  0  0
M  STY  1   1 SUP
M  SAL   1  2  20  21
M  SBL   1  1  22
M  SMT   1 OCH3
M  SAP   1  1  20  14  1
M  END
>  <cdx:fragmentId>
5

$$$$
