98872.cdx
  Mrv1902 05222410182D          

 32 34  0  0  0  0            999 V2000
    8.5437   -9.7487    0.0000 C   0  0  0  0  0  0  0  0  0  0  0  0
    8.5437  -10.5737    0.0000 C   0  0  0  0  0  0  0  0  0  0  0  0
    9.2581  -10.9863    0.0000 C   0  0  0  0  0  0  0  0  0  0  0  0
    9.9726  -10.5737    0.0000 C   0  0  0  0  0  0  0  0  0  0  0  0
    9.9726   -9.7487    0.0000 C   0  0  0  0  0  0  0  0  0  0  0  0
    9.2581   -9.3362    0.0000 C   0  0  0  0  0  0  0  0  0  0  0  0
   10.6871   -9.3362    0.0000 C   0  0  0  0  0  0  0  0  0  0  0  0
   11.4016   -9.7487    0.0000 C   0  0  0  0  0  0  0  0  0  0  0  0
   12.1160   -9.3362    0.0000 C   0  0  0  0  0  0  0  0  0  0  0  0
    7.8292  -10.9863    0.0000 O   0  0  0  0  0  0  0  0  0  0  0  0
    6.4047   -9.3340    0.0000 C   0  0  2  0  0  0  0  0  0  0  0  0
    5.6899   -9.7460    0.0000 C   0  0  2  0  0  0  0  0  0  0  0  0
    5.6893  -10.5710    0.0000 C   0  0  1  0  0  0  0  0  0  0  0  0
    6.4035  -10.9840    0.0000 C   0  0  2  0  0  0  0  0  0  0  0  0
    7.1183  -10.5720    0.0000 C   0  0  1  0  0  0  0  0  0  0  0  0
    7.1188   -9.7470    0.0000 O   0  0  0  0  0  0  0  0  0  0  0  0
    6.4052   -8.5090    0.0000 C   0  0  0  0  0  0  0  0  0  0  0  0
    4.9746  -10.9830    0.0000 O   0  0  0  0  0  0  0  0  0  0  0  0
    4.9757   -9.3330    0.0000 O   0  0  0  0  0  0  0  0  0  0  0  0
    6.4030  -11.8090    0.0000 O   0  0  0  0  0  0  0  0  0  0  0  0
    5.6910   -8.0960    0.0000 O   0  0  0  0  0  0  0  0  0  0  0  0
    6.4102   -6.0345    0.0000 C   0  0  0  0  0  0  0  0  0  0  0  0
    5.6967   -5.6203    0.0000 C   0  0  2  0  0  0  0  0  0  0  0  0
    4.9812   -6.0311    0.0000 C   0  0  1  0  0  0  0  0  0  0  0  0
    4.9792   -6.8561    0.0000 C   0  0  2  0  0  0  0  0  0  0  0  0
    5.6927   -7.2703    0.0000 C   0  0  1  0  0  0  0  0  0  0  0  0
    6.4082   -6.8595    0.0000 O   0  0  0  0  0  0  0  0  0  0  0  0
    4.2678   -5.6168    0.0000 O   0  0  0  0  0  0  0  0  0  0  0  0
    5.6987   -4.7953    0.0000 O   0  0  0  0  0  0  0  0  0  0  0  0
    4.2638   -7.2668    0.0000 O   0  0  0  0  0  0  0  0  0  0  0  0
    9.2581  -11.8113    0.0000 O   0  0  0  0  0  0  0  0  0  0  0  0
    9.9726  -12.2238    0.0000 C   0  0  0  0  0  0  0  0  0  0  0  0
  1  2  2  0  0  0  0
  2  3  1  0  0  0  0
  3  4  2  0  0  0  0
  4  5  1  0  0  0  0
  5  6  2  0  0  0  0
  6  1  1  0  0  0  0
  5  7  1  0  0  0  0
  7  8  1  0  0  0  0
  8  9  2  0  0  0  0
  2 10  1  0  0  0  0
 11 12  1  0  0  0  0
 12 13  1  0  0  0  0
 13 14  1  0  0  0  0
 14 15  1  0  0  0  0
 15 16  1  0  0  0  0
 16 11  1  0  0  0  0
 11 17  1  1  0  0  0
 13 18  1  1  0  0  0
 12 19  1  6  0  0  0
 14 20  1  6  0  0  0
 17 21  1  0  0  0  0
 15 10  1  1  0  0  0
 22 23  1  0  0  0  0
 23 24  1  0  0  0  0
 24 25  1  0  0  0  0
 25 26  1  0  0  0  0
 26 27  1  0  0  0  0
 27 22  1  0  0  0  0
 24 28  1  1  0  0  0
 23 29  1  6  0  0  0
 25 30  1  6  0  0  0
 26 21  1  1  0  0  0
  3 31  1  0  0  0  0
 31 32  1  0  0  0  0
M  END
>  <cdx:fragmentId>
336

$$$$
