98889.cdx
  Mrv1902 05222410192D          

 57 62  0  0  0  0            999 V2000
    7.8279   -5.7010    0.0000 C   0  0  0  0  0  0  0  0  0  0  0  0
    7.8279   -6.5260    0.0000 C   0  0  0  0  0  0  0  0  0  0  0  0
    8.5424   -6.9385    0.0000 O   0  0  0  0  0  0  0  0  0  0  0  0
    7.1134   -6.9385    0.0000 C   0  0  0  0  0  0  0  0  0  0  0  0
    7.1134   -7.7635    0.0000 O   0  0  0  0  0  0  0  0  0  0  0  0
    6.3989   -6.5260    0.0000 C   0  0  0  0  0  0  0  0  0  0  0  0
    5.6845   -6.9385    0.0000 C   0  0  0  0  0  0  0  0  0  0  0  0
    5.6845   -7.7635    0.0000 O   0  0  0  0  0  0  0  0  0  0  0  0
    4.9700   -6.5260    0.0000 C   0  0  0  0  0  0  0  0  0  0  0  0
    4.9700   -5.7010    0.0000 C   0  0  0  0  0  0  0  0  0  0  0  0
    4.2555   -5.2885    0.0000 O   0  0  0  0  0  0  0  0  0  0  0  0
    5.6845   -5.2885    0.0000 C   0  0  0  0  0  0  0  0  0  0  0  0
    6.3989   -5.7010    0.0000 C   0  0  0  0  0  0  0  0  0  0  0  0
    7.1134   -5.2885    0.0000 O   0  0  0  0  0  0  0  0  0  0  0  0
    8.5424   -5.2885    0.0000 C   0  0  0  0  0  0  0  0  0  0  0  0
    8.5424   -4.4635    0.0000 C   0  0  0  0  0  0  0  0  0  0  0  0
    9.2568   -4.0510    0.0000 C   0  0  0  0  0  0  0  0  0  0  0  0
    9.9713   -4.4635    0.0000 C   0  0  0  0  0  0  0  0  0  0  0  0
   10.6858   -4.0510    0.0000 O   0  0  0  0  0  0  0  0  0  0  0  0
    9.9713   -5.2885    0.0000 C   0  0  0  0  0  0  0  0  0  0  0  0
    9.2568   -5.7010    0.0000 C   0  0  0  0  0  0  0  0  0  0  0  0
    4.9731   -3.2273    0.0000 C   0  0  2  0  0  0  0  0  0  0  0  0
    4.2620   -2.8090    0.0000 C   0  0  2  0  0  0  0  0  0  0  0  0
    3.5442   -3.2157    0.0000 C   0  0  1  0  0  0  0  0  0  0  0  0
    3.5375   -4.0407    0.0000 C   0  0  2  0  0  0  0  0  0  0  0  0
    4.2486   -4.4590    0.0000 C   0  0  1  0  0  0  0  0  0  0  0  0
    4.9664   -4.0523    0.0000 O   0  0  0  0  0  0  0  0  0  0  0  0
    5.6909   -2.8206    0.0000 C   0  0  0  0  0  0  0  0  0  0  0  0
    2.8331   -2.7974    0.0000 O   0  0  0  0  0  0  0  0  0  0  0  0
    4.2687   -1.9841    0.0000 O   0  0  0  0  0  0  0  0  0  0  0  0
    2.8197   -4.4474    0.0000 O   0  0  0  0  0  0  0  0  0  0  0  0
    5.6976   -1.9957    0.0000 O   0  0  0  0  0  0  0  0  0  0  0  0
    8.9551  -12.3710    0.0000 C   0  0  2  0  0  0  0  0  0  0  0  0
    9.7801  -12.3695    0.0000 C   0  0  2  0  0  0  0  0  0  0  0  0
   10.1913  -11.6543    0.0000 C   0  0  1  0  0  0  0  0  0  0  0  0
    9.7775  -10.9406    0.0000 C   0  0  2  0  0  0  0  0  0  0  0  0
    8.9525  -10.9421    0.0000 C   0  0  1  0  0  0  0  0  0  0  0  0
    8.5413  -11.6573    0.0000 O   0  0  0  0  0  0  0  0  0  0  0  0
    8.5438  -13.0862    0.0000 C   0  0  0  0  0  0  0  0  0  0  0  0
   11.0163  -11.6528    0.0000 O   0  0  0  0  0  0  0  0  0  0  0  0
    8.5387  -10.2284    0.0000 O   0  0  0  0  0  0  0  0  0  0  0  0
   10.1938  -13.0833    0.0000 O   0  0  0  0  0  0  0  0  0  0  0  0
   10.1887  -10.2254    0.0000 O   0  0  0  0  0  0  0  0  0  0  0  0
    8.9576  -13.8000    0.0000 O   0  0  0  0  0  0  0  0  0  0  0  0
    7.8353   -8.9913    0.0000 C   0  0  1  0  0  0  0  0  0  0  0  0
    8.5491   -9.4049    0.0000 C   0  0  1  0  0  0  0  0  0  0  0  0
    9.2643   -8.9936    0.0000 C   0  0  2  0  0  0  0  0  0  0  0  0
    9.2656   -8.1686    0.0000 C   0  0  2  0  0  0  0  0  0  0  0  0
    8.5517   -7.7549    0.0000 C   0  0  1  0  0  0  0  0  0  0  0  0
    7.8366   -8.1663    0.0000 O   0  0  0  0  0  0  0  0  0  0  0  0
    7.1202   -9.4027    0.0000 C   0  0  0  0  0  0  0  0  0  0  0  0
    9.9781   -9.4072    0.0000 O   0  0  0  0  0  0  0  0  0  0  0  0
    9.9807   -7.7572    0.0000 O   0  0  0  0  0  0  0  0  0  0  0  0
    8.5464  -14.5152    0.0000 C   0  0  0  0  0  0  0  0  0  0  0  0
    7.7214  -14.5167    0.0000 C   0  0  0  0  0  0  0  0  0  0  0  0
    7.3076  -13.8029    0.0000 C   0  0  0  0  0  0  0  0  0  0  0  0
    7.3102  -15.2319    0.0000 C   0  0  0  0  0  0  0  0  0  0  0  0
  1  2  2  0  0  0  0
  2  3  1  0  0  0  0
  2  4  1  0  0  0  0
  4  5  2  0  0  0  0
  4  6  1  0  0  0  0
  6  7  1  0  0  0  0
  7  8  1  0  0  0  0
  7  9  2  0  0  0  0
  9 10  1  0  0  0  0
 10 11  1  0  0  0  0
 10 12  2  0  0  0  0
 12 13  1  0  0  0  0
  6 13  2  0  0  0  0
 13 14  1  0  0  0  0
  1 14  1  0  0  0  0
  1 15  1  0  0  0  0
 15 16  1  0  0  0  0
 16 17  2  0  0  0  0
 17 18  1  0  0  0  0
 18 19  1  0  0  0  0
 18 20  2  0  0  0  0
 20 21  1  0  0  0  0
 15 21  2  0  0  0  0
 22 23  1  0  0  0  0
 23 24  1  0  0  0  0
 24 25  1  0  0  0  0
 25 26  1  0  0  0  0
 26 27  1  0  0  0  0
 27 22  1  0  0  0  0
 22 28  1  1  0  0  0
 24 29  1  1  0  0  0
 23 30  1  6  0  0  0
 25 31  1  6  0  0  0
 28 32  1  0  0  0  0
 33 34  1  0  0  0  0
 34 35  1  0  0  0  0
 35 36  1  0  0  0  0
 36 37  1  0  0  0  0
 37 38  1  0  0  0  0
 38 33  1  0  0  0  0
 33 39  1  1  0  0  0
 35 40  1  1  0  0  0
 37 41  1  1  0  0  0
 34 42  1  6  0  0  0
 36 43  1  6  0  0  0
 39 44  1  0  0  0  0
 45 46  1  0  0  0  0
 46 47  1  0  0  0  0
 47 48  1  0  0  0  0
 48 49  1  0  0  0  0
 49 50  1  0  0  0  0
 50 45  1  0  0  0  0
 45 51  1  6  0  0  0
 47 52  1  6  0  0  0
 48 53  1  6  0  0  0
 44 54  1  0  0  0  0
 54 55  1  0  0  0  0
 55 56  1  0  0  0  0
 55 57  1  0  0  0  0
 26 11  1  1  0  0  0
 46 41  1  1  0  0  0
 49  3  1  1  0  0  0
M  END
>  <cdx:fragmentId>
5

$$$$
