98884.cdx
  Mrv1902 05222410262D          

 30 34  0  0  0  0            999 V2000
    5.2024   -6.3662    0.0000 C   0  0  0  0  0  0  0  0  0  0  0  0
    5.2024   -7.1913    0.0000 O   0  0  0  0  0  0  0  0  0  0  0  0
    5.9169   -7.6037    0.0000 C   0  0  1  0  0  0  0  0  0  0  0  0
    6.6314   -7.1913    0.0000 C   0  0  1  0  0  0  0  0  0  0  0  0
    6.6314   -6.3662    0.0000 C   0  0  1  0  0  0  0  0  0  0  0  0
    5.9169   -5.9538    0.0000 C   0  0  0  0  0  0  0  0  0  0  0  0
    7.3458   -7.6037    0.0000 C   0  0  0  0  0  0  0  0  0  0  0  0
    8.0603   -7.1913    0.0000 C   0  0  0  0  0  0  0  0  0  0  0  0
    8.0603   -6.3662    0.0000 C   0  0  0  0  0  0  0  0  0  0  0  0
    7.3458   -5.9538    0.0000 C   0  0  2  0  0  0  0  0  0  0  0  0
    5.9169   -8.4288    0.0000 C   0  0  0  0  0  0  0  0  0  0  0  0
    6.6314   -8.8412    0.0000 C   0  0  0  0  0  0  0  0  0  0  0  0
    7.3458   -8.4288    0.0000 C   0  0  2  0  0  0  0  0  0  0  0  0
    6.6314   -9.6662    0.0000 C   0  0  0  0  0  0  0  0  0  0  0  0
    7.3458  -10.0787    0.0000 C   0  0  0  0  0  0  0  0  0  0  0  0
    8.0603   -9.6662    0.0000 C   0  0  0  0  0  0  0  0  0  0  0  0
    8.0603   -8.8412    0.0000 C   0  0  0  0  0  0  0  0  0  0  0  0
    4.4880   -5.9538    0.0000 O   0  0  0  0  0  0  0  0  0  0  0  0
    6.9333   -5.2393    0.0000 C   0  0  0  0  0  0  0  0  0  0  0  0
    8.7748  -10.0787    0.0000 O   0  0  0  0  0  0  0  0  0  0  0  0
    8.7748  -10.9037    0.0000 C   0  0  0  0  0  0  0  0  0  0  0  0
    8.7748   -8.4287    0.0000 O   0  0  0  0  0  0  0  0  0  0  0  0
    6.6314   -5.5413    0.0000 O   0  0  0  0  0  0  0  0  0  0  0  0
    6.6314   -8.0162    0.0000 C   0  0  0  0  0  0  0  0  0  0  0  0
    5.2024   -8.0162    0.0000 H   0  0  0  0  0  0  0  0  0  0  0  0
    8.0603   -8.0162    0.0000 C   0  0  0  0  0  0  0  0  0  0  0  0
    7.7583   -5.2393    0.0000 O   0  0  0  0  0  0  0  0  0  0  0  0
    8.8449   -7.4462    0.0000 O   0  0  0  0  0  0  0  0  0  0  0  0
    9.3299   -6.7788    0.0000 C   0  0  0  0  0  0  0  0  0  0  0  0
    8.8449   -6.1113    0.0000 O   0  0  0  0  0  0  0  0  0  0  0  0
  1  2  1  0  0  0  0
  2  3  1  0  0  0  0
  3  4  1  0  0  0  0
  4  5  1  0  0  0  0
  5  6  1  0  0  0  0
  6  1  1  0  0  0  0
  4  7  1  0  0  0  0
  7  8  1  0  0  0  0
  8  9  1  0  0  0  0
  9 10  1  0  0  0  0
 10  5  1  0  0  0  0
  3 11  1  0  0  0  0
 11 12  1  0  0  0  0
 12 13  1  0  0  0  0
 13  7  1  0  0  0  0
 12 14  1  0  0  0  0
 14 15  1  0  0  0  0
 15 16  2  0  0  0  0
 16 17  1  0  0  0  0
 17 13  1  0  0  0  0
  1 18  2  0  0  0  0
 10 19  1  0  0  0  0
 16 20  1  0  0  0  0
 20 21  1  0  0  0  0
 17 22  2  0  0  0  0
  5 23  1  6  0  0  0
  4 24  1  6  0  0  0
  3 25  1  6  0  0  0
 13 26  1  6  0  0  0
 10 27  1  6  0  0  0
  8 28  1  0  0  0  0
 28 29  1  0  0  0  0
 29 30  1  0  0  0  0
 30  9  1  0  0  0  0
M  END
>  <cdx:fragmentId>
5

$$$$
