98888.cdx
  Mrv1902 05222410192D          

 43 47  0  0  0  0            999 V2000
   10.1357   -7.9010    0.0000 C   0  0  0  0  0  0  0  0  0  0  0  0
   10.1357   -7.0760    0.0000 C   0  0  0  0  0  0  0  0  0  0  0  0
   10.8502   -6.6635    0.0000 C   0  0  0  0  0  0  0  0  0  0  0  0
   11.5646   -7.0760    0.0000 C   0  0  0  0  0  0  0  0  0  0  0  0
   11.5646   -7.9010    0.0000 C   0  0  0  0  0  0  0  0  0  0  0  0
   10.8502   -8.3135    0.0000 C   0  0  0  0  0  0  0  0  0  0  0  0
   10.8502   -5.8385    0.0000 O   0  0  0  0  0  0  0  0  0  0  0  0
   11.5646   -5.4260    0.0000 C   0  0  0  0  0  0  0  0  0  0  0  0
   12.2791   -6.6635    0.0000 O   0  0  0  0  0  0  0  0  0  0  0  0
    7.2778  -10.3760    0.0000 O   0  0  0  0  0  0  0  0  0  0  0  0
    5.8489   -7.9010    0.0000 O   0  0  0  0  0  0  0  0  0  0  0  0
    8.7068  -10.3760    0.0000 O   0  0  0  0  0  0  0  0  0  0  0  0
    8.7068   -7.9010    0.0000 O   0  0  0  0  0  0  0  0  0  0  0  0
    7.9923   -8.3135    0.0000 C   0  0  0  0  0  0  0  0  0  0  0  0
    7.2778   -7.9010    0.0000 C   0  0  0  0  0  0  0  0  0  0  0  0
    6.5634   -8.3135    0.0000 C   0  0  0  0  0  0  0  0  0  0  0  0
    6.5634   -9.1385    0.0000 C   0  0  0  0  0  0  0  0  0  0  0  0
    7.2778   -9.5510    0.0000 C   0  0  0  0  0  0  0  0  0  0  0  0
    7.9923   -9.1385    0.0000 C   0  0  0  0  0  0  0  0  0  0  0  0
    8.7068   -9.5510    0.0000 C   0  0  0  0  0  0  0  0  0  0  0  0
    9.4212   -9.1385    0.0000 C   0  0  0  0  0  0  0  0  0  0  0  0
    9.4212   -8.3135    0.0000 C   0  0  0  0  0  0  0  0  0  0  0  0
    6.5298   -5.8082    0.0000 C   0  0  2  0  0  0  0  0  0  0  0  0
    5.8086   -5.4075    0.0000 C   0  0  2  0  0  0  0  0  0  0  0  0
    5.1010   -5.8318    0.0000 C   0  0  1  0  0  0  0  0  0  0  0  0
    5.1146   -6.6567    0.0000 C   0  0  2  0  0  0  0  0  0  0  0  0
    5.8358   -7.0573    0.0000 C   0  0  1  0  0  0  0  0  0  0  0  0
    6.5434   -6.6331    0.0000 O   0  0  0  0  0  0  0  0  0  0  0  0
    4.4071   -7.0809    0.0000 O   0  0  0  0  0  0  0  0  0  0  0  0
    4.4207   -7.9058    0.0000 C   0  0  2  0  0  0  0  0  0  0  0  0
    5.1418   -8.3064    0.0000 O   0  0  0  0  0  0  0  0  0  0  0  0
    3.7131   -8.3300    0.0000 C   0  0  1  0  0  0  0  0  0  0  0  0
    3.7267   -9.1549    0.0000 C   0  0  1  0  0  0  0  0  0  0  0  0
    4.4479   -9.5556    0.0000 C   0  0  2  0  0  0  0  0  0  0  0  0
    5.1555   -9.1313    0.0000 C   0  0  2  0  0  0  0  0  0  0  0  0
    7.2373   -5.3840    0.0000 C   0  0  0  0  0  0  0  0  0  0  0  0
    7.2237   -4.5591    0.0000 O   0  0  0  0  0  0  0  0  0  0  0  0
    5.7950   -4.5827    0.0000 O   0  0  0  0  0  0  0  0  0  0  0  0
    4.3799   -5.4311    0.0000 O   0  0  0  0  0  0  0  0  0  0  0  0
    2.9919   -7.9293    0.0000 O   0  0  0  0  0  0  0  0  0  0  0  0
    3.0191   -9.5791    0.0000 O   0  0  0  0  0  0  0  0  0  0  0  0
    5.8766   -9.5320    0.0000 C   0  0  0  0  0  0  0  0  0  0  0  0
    4.4615  -10.3804    0.0000 O   0  0  0  0  0  0  0  0  0  0  0  0
 18 10  1  0  0  0  0
 16 11  1  0  0  0  0
 22  1  1  0  0  0  0
 20 12  2  0  0  0  0
 22 13  1  0  0  0  0
 14 13  1  0  0  0  0
 19 14  2  0  0  0  0
 15 14  1  0  0  0  0
 16 15  2  0  0  0  0
 17 16  1  0  0  0  0
 18 17  2  0  0  0  0
 19 18  1  0  0  0  0
 20 19  1  0  0  0  0
 21 20  1  0  0  0  0
 22 21  2  0  0  0  0
  1  2  1  0  0  0  0
  2  3  2  0  0  0  0
  3  4  1  0  0  0  0
  4  5  2  0  0  0  0
  5  6  1  0  0  0  0
  1  6  2  0  0  0  0
  7  8  1  0  0  0  0
  3  7  1  0  0  0  0
  4  9  1  0  0  0  0
 23 24  1  0  0  0  0
 24 25  1  0  0  0  0
 25 26  1  0  0  0  0
 26 27  1  0  0  0  0
 27 28  1  0  0  0  0
 28 23  1  0  0  0  0
 26 29  1  6  0  0  0
 30 29  1  6  0  0  0
 30 31  1  0  0  0  0
 30 32  1  0  0  0  0
 32 33  1  0  0  0  0
 33 34  1  0  0  0  0
 34 35  1  0  0  0  0
 35 31  1  0  0  0  0
 23 36  1  1  0  0  0
 36 37  1  0  0  0  0
 24 38  1  6  0  0  0
 25 39  1  1  0  0  0
 32 40  1  1  0  0  0
 33 41  1  1  0  0  0
 35 42  1  1  0  0  0
 34 43  1  6  0  0  0
 27 11  1  1  0  0  0
M  END
>  <cdx:fragmentId>
5

$$$$
