98887.cdx
  Mrv1902 05222410262D          

 37 40  0  0  0  0            999 V2000
    9.0241   -7.5650    0.0000 C   0  0  0  0  0  0  0  0  0  0  0  0
    9.0241   -8.3900    0.0000 C   0  0  0  0  0  0  0  0  0  0  0  0
    8.3097   -8.8025    0.0000 C   0  0  0  0  0  0  0  0  0  0  0  0
    8.3097   -9.6275    0.0000 O   0  0  0  0  0  0  0  0  0  0  0  0
    7.5952   -8.3900    0.0000 C   0  0  0  0  0  0  0  0  0  0  0  0
    6.8807   -8.8025    0.0000 C   0  0  0  0  0  0  0  0  0  0  0  0
    6.1663   -8.3900    0.0000 C   0  0  0  0  0  0  0  0  0  0  0  0
    6.1663   -7.5650    0.0000 C   0  0  0  0  0  0  0  0  0  0  0  0
    6.8807   -7.1525    0.0000 C   0  0  0  0  0  0  0  0  0  0  0  0
    7.5952   -7.5650    0.0000 C   0  0  0  0  0  0  0  0  0  0  0  0
    8.3097   -7.1525    0.0000 O   0  0  0  0  0  0  0  0  0  0  0  0
    9.7386   -7.1525    0.0000 C   0  0  0  0  0  0  0  0  0  0  0  0
   10.4531   -7.5650    0.0000 C   0  0  0  0  0  0  0  0  0  0  0  0
   11.1675   -7.1525    0.0000 C   0  0  0  0  0  0  0  0  0  0  0  0
   11.1675   -6.3275    0.0000 C   0  0  0  0  0  0  0  0  0  0  0  0
   10.4531   -5.9150    0.0000 C   0  0  0  0  0  0  0  0  0  0  0  0
    9.7386   -6.3275    0.0000 C   0  0  0  0  0  0  0  0  0  0  0  0
   11.8820   -5.9150    0.0000 O   0  0  0  0  0  0  0  0  0  0  0  0
   12.5965   -6.3275    0.0000 C   0  0  0  0  0  0  0  0  0  0  0  0
   11.8820   -7.5650    0.0000 O   0  0  0  0  0  0  0  0  0  0  0  0
   12.5965   -7.1525    0.0000 C   0  0  0  0  0  0  0  0  0  0  0  0
    5.4518   -7.1525    0.0000 O   0  0  0  0  0  0  0  0  0  0  0  0
    6.8807   -9.6275    0.0000 O   0  0  0  0  0  0  0  0  0  0  0  0
    6.1663  -10.0400    0.0000 C   0  0  0  0  0  0  0  0  0  0  0  0
    5.4518   -8.8025    0.0000 O   0  0  0  0  0  0  0  0  0  0  0  0
    4.0291   -7.1350    0.0000 C   0  0  2  0  0  0  0  0  0  0  0  0
    3.3135   -7.5456    0.0000 C   0  0  2  0  0  0  0  0  0  0  0  0
    3.3113   -8.3706    0.0000 C   0  0  1  0  0  0  0  0  0  0  0  0
    4.0246   -8.7850    0.0000 C   0  0  2  0  0  0  0  0  0  0  0  0
    4.7402   -8.3745    0.0000 C   0  0  1  0  0  0  0  0  0  0  0  0
    4.7424   -7.5495    0.0000 O   0  0  0  0  0  0  0  0  0  0  0  0
    4.0313   -6.3100    0.0000 C   0  0  0  0  0  0  0  0  0  0  0  0
    2.5957   -8.7812    0.0000 O   0  0  0  0  0  0  0  0  0  0  0  0
    2.6001   -7.1312    0.0000 O   0  0  0  0  0  0  0  0  0  0  0  0
    4.0224   -9.6100    0.0000 O   0  0  0  0  0  0  0  0  0  0  0  0
    3.3179   -5.8956    0.0000 O   0  0  0  0  0  0  0  0  0  0  0  0
    5.4518   -6.3275    0.0000 C   0  0  0  0  0  0  0  0  0  0  0  0
  1  2  2  0  0  0  0
  2  3  1  0  0  0  0
  3  4  2  0  0  0  0
  3  5  1  0  0  0  0
  5  6  1  0  0  0  0
  6  7  2  0  0  0  0
  7  8  1  0  0  0  0
  8  9  2  0  0  0  0
  9 10  1  0  0  0  0
  5 10  2  0  0  0  0
 10 11  1  0  0  0  0
  1 11  1  0  0  0  0
  1 12  1  0  0  0  0
 12 13  1  0  0  0  0
 13 14  2  0  0  0  0
 14 15  1  0  0  0  0
 15 16  2  0  0  0  0
 16 17  1  0  0  0  0
 12 17  2  0  0  0  0
 18 19  1  0  0  0  0
 15 18  1  0  0  0  0
 20 21  1  0  0  0  0
 14 20  1  0  0  0  0
  8 22  1  0  0  0  0
 23 24  1  0  0  0  0
  6 23  1  0  0  0  0
  7 25  1  0  0  0  0
 26 27  1  0  0  0  0
 27 28  1  0  0  0  0
 28 29  1  0  0  0  0
 29 30  1  0  0  0  0
 30 31  1  0  0  0  0
 31 26  1  0  0  0  0
 26 32  1  1  0  0  0
 28 33  1  1  0  0  0
 27 34  1  6  0  0  0
 29 35  1  6  0  0  0
 32 36  1  0  0  0  0
 22 37  1  0  0  0  0
 30 25  1  1  0  0  0
M  END
>  <cdx:fragmentId>
5

$$$$
