98885.cdx
  Mrv1902 05222410272D          

 31 34  0  0  0  0            999 V2000
    4.8862   -7.4663    0.0000 C   0  0  1  0  0  0  0  0  0  0  0  0
    4.8862   -8.2912    0.0000 C   0  0  0  0  0  0  0  0  0  0  0  0
    5.6006   -8.7037    0.0000 C   0  0  2  0  0  0  0  0  0  0  0  0
    6.3151   -8.2912    0.0000 C   0  0  1  0  0  0  0  0  0  0  0  0
    6.3151   -7.4663    0.0000 C   0  0  2  0  0  0  0  0  0  0  0  0
    5.6006   -7.0537    0.0000 C   0  0  0  0  0  0  0  0  0  0  0  0
    7.0296   -8.7037    0.0000 C   0  0  0  0  0  0  0  0  0  0  0  0
    7.7441   -8.2912    0.0000 C   0  0  2  0  0  0  0  0  0  0  0  0
    7.7441   -7.4663    0.0000 C   0  0  2  0  0  0  0  0  0  0  0  0
    7.0296   -7.0537    0.0000 C   0  0  2  0  0  0  0  0  0  0  0  0
    8.4585   -8.7037    0.0000 O   0  0  0  0  0  0  0  0  0  0  0  0
    9.1730   -8.2912    0.0000 C   0  0  0  0  0  0  0  0  0  0  0  0
    9.1730   -7.4663    0.0000 C   0  0  0  0  0  0  0  0  0  0  0  0
    8.4585   -7.0537    0.0000 C   0  0  1  0  0  0  0  0  0  0  0  0
    8.4585   -6.2287    0.0000 C   0  0  0  0  0  0  0  0  0  0  0  0
    7.7441   -5.8163    0.0000 C   0  0  0  0  0  0  0  0  0  0  0  0
    7.0296   -6.2287    0.0000 C   0  0  0  0  0  0  0  0  0  0  0  0
    9.1730   -5.8163    0.0000 C   0  0  0  0  0  0  0  0  0  0  0  0
    8.4585   -4.5788    0.0000 C   0  0  0  0  0  0  0  0  0  0  0  0
    7.7441   -4.9913    0.0000 O   0  0  0  0  0  0  0  0  0  0  0  0
    6.3151   -5.8163    0.0000 O   0  0  0  0  0  0  0  0  0  0  0  0
    9.8875   -8.7037    0.0000 O   0  0  0  0  0  0  0  0  0  0  0  0
    5.6006   -6.2287    0.0000 O   0  0  0  0  0  0  0  0  0  0  0  0
    7.0296   -7.8788    0.0000 C   0  0  0  0  0  0  0  0  0  0  0  0
    4.1717   -7.0537    0.0000 O   0  0  0  0  0  0  0  0  0  0  0  0
    5.6006   -9.5287    0.0000 C   0  0  0  0  0  0  0  0  0  0  0  0
    6.3151   -9.1162    0.0000 H   0  0  0  0  0  0  0  0  0  0  0  0
    8.4585   -7.8788    0.0000 O   0  0  0  0  0  0  0  0  0  0  0  0
    7.7441   -6.6413    0.0000 C   0  0  0  0  0  0  0  0  0  0  0  0
    6.3151   -6.6413    0.0000 C   0  0  0  0  0  0  0  0  0  0  0  0
    7.7441   -9.1162    0.0000 H   0  0  0  0  0  0  0  0  0  0  0  0
  1  2  1  0  0  0  0
  2  3  1  0  0  0  0
  3  4  1  0  0  0  0
  4  5  1  0  0  0  0
  5  6  1  0  0  0  0
  6  1  1  0  0  0  0
  4  7  1  0  0  0  0
  7  8  1  0  0  0  0
  8  9  1  0  0  0  0
  9 10  1  0  0  0  0
 10  5  1  0  0  0  0
  8 11  1  0  0  0  0
 11 12  1  0  0  0  0
 12 13  1  0  0  0  0
 13 14  1  0  0  0  0
 14  9  1  0  0  0  0
 14 15  1  0  0  0  0
 15 16  2  0  0  0  0
 16 17  1  0  0  0  0
 17 10  1  0  0  0  0
 15 18  1  0  0  0  0
 19 20  1  0  0  0  0
 20 16  1  0  0  0  0
 17 21  2  0  0  0  0
 12 22  2  0  0  0  0
  6 23  2  0  0  0  0
 10 24  1  6  0  0  0
  1 25  1  6  0  0  0
  3 26  1  6  0  0  0
  4 27  1  6  0  0  0
 14 28  1  1  0  0  0
  9 29  1  1  0  0  0
  5 30  1  1  0  0  0
  8 31  1  1  0  0  0
M  END
>  <cdx:fragmentId>
5

$$$$
