98883.cdx
  Mrv1902 05222410282D          

 27 30  0  0  0  0            999 V2000
    7.1824   -5.4725    0.0000 C   0  0  0  0  0  0  0  0  0  0  0  0
    7.1824   -6.2975    0.0000 C   0  0  0  0  0  0  0  0  0  0  0  0
    7.8969   -6.7100    0.0000 C   0  0  0  0  0  0  0  0  0  0  0  0
    8.6114   -6.2975    0.0000 C   0  0  0  0  0  0  0  0  0  0  0  0
    8.6114   -5.4725    0.0000 C   0  0  0  0  0  0  0  0  0  0  0  0
    7.8969   -5.0600    0.0000 C   0  0  0  0  0  0  0  0  0  0  0  0
    9.3258   -6.7100    0.0000 C   0  0  0  0  0  0  0  0  0  0  0  0
   10.0403   -6.2975    0.0000 C   0  0  0  0  0  0  0  0  0  0  0  0
   10.0403   -5.4725    0.0000 C   0  0  0  0  0  0  0  0  0  0  0  0
    9.3258   -5.0600    0.0000 O   0  0  0  0  0  0  0  0  0  0  0  0
    6.3978   -5.2176    0.0000 C   0  0  0  0  0  0  0  0  0  0  0  0
    5.9129   -5.8850    0.0000 C   0  0  0  0  0  0  0  0  0  0  0  0
    6.3978   -6.5524    0.0000 C   0  0  0  0  0  0  0  0  0  0  0  0
   10.7548   -5.0600    0.0000 O   0  0  0  0  0  0  0  0  0  0  0  0
    7.8969   -7.5350    0.0000 O   0  0  0  0  0  0  0  0  0  0  0  0
    6.1429   -4.4329    0.0000 O   0  0  0  0  0  0  0  0  0  0  0  0
    7.1824   -7.9475    0.0000 C   0  0  2  0  0  0  0  0  0  0  0  0
    6.4680   -7.5350    0.0000 O   0  0  0  0  0  0  0  0  0  0  0  0
    5.7535   -7.9475    0.0000 C   0  0  1  0  0  0  0  0  0  0  0  0
    5.7535   -8.7725    0.0000 C   0  0  2  0  0  0  0  0  0  0  0  0
    6.4680   -9.1850    0.0000 C   0  0  1  0  0  0  0  0  0  0  0  0
    7.1824   -8.7725    0.0000 C   0  0  1  0  0  0  0  0  0  0  0  0
    5.0390   -7.5350    0.0000 C   0  0  0  0  0  0  0  0  0  0  0  0
    6.4680  -10.0100    0.0000 O   0  0  0  0  0  0  0  0  0  0  0  0
    5.0390   -9.1850    0.0000 O   0  0  0  0  0  0  0  0  0  0  0  0
    7.8969   -9.1850    0.0000 O   0  0  0  0  0  0  0  0  0  0  0  0
    4.3245   -7.9475    0.0000 O   0  0  0  0  0  0  0  0  0  0  0  0
  1  2  2  0  0  0  0
  2  3  1  0  0  0  0
  3  4  2  0  0  0  0
  4  5  1  0  0  0  0
  5  6  2  0  0  0  0
  6  1  1  0  0  0  0
  4  7  1  0  0  0  0
  7  8  2  0  0  0  0
  8  9  1  0  0  0  0
  9 10  1  0  0  0  0
 10  5  1  0  0  0  0
  1 11  1  0  0  0  0
 11 12  1  0  0  0  0
 12 13  2  0  0  0  0
 13  2  1  0  0  0  0
  9 14  2  0  0  0  0
  3 15  1  0  0  0  0
 11 16  2  0  0  0  0
 17 15  1  1  0  0  0
 17 18  1  0  0  0  0
 18 19  1  0  0  0  0
 19 20  1  0  0  0  0
 20 21  1  0  0  0  0
 21 22  1  0  0  0  0
 22 17  1  0  0  0  0
 19 23  1  1  0  0  0
 21 24  1  1  0  0  0
 20 25  1  6  0  0  0
 22 26  1  6  0  0  0
 23 27  1  0  0  0  0
M  END
>  <cdx:fragmentId>
5

$$$$
