98880.cdx
  Mrv1902 05222410272D          

 31 34  0  0  0  0            999 V2000
    7.5521   -6.8422    0.0000 C   0  0  0  0  0  0  0  0  0  0  0  0
    8.2666   -7.2547    0.0000 C   0  0  0  0  0  0  0  0  0  0  0  0
    8.2666   -8.0797    0.0000 C   0  0  0  0  0  0  0  0  0  0  0  0
    7.5521   -8.4922    0.0000 C   0  0  0  0  0  0  0  0  0  0  0  0
    6.8376   -8.0797    0.0000 C   0  0  0  0  0  0  0  0  0  0  0  0
    6.1231   -8.4922    0.0000 C   0  0  0  0  0  0  0  0  0  0  0  0
    6.1231   -9.3172    0.0000 O   0  0  0  0  0  0  0  0  0  0  0  0
    5.4087   -8.0797    0.0000 C   0  0  0  0  0  0  0  0  0  0  0  0
    4.6942   -8.4922    0.0000 C   0  0  0  0  0  0  0  0  0  0  0  0
    3.9797   -8.0797    0.0000 C   0  0  0  0  0  0  0  0  0  0  0  0
    3.9797   -7.2547    0.0000 C   0  0  0  0  0  0  0  0  0  0  0  0
    4.6942   -6.8422    0.0000 C   0  0  0  0  0  0  0  0  0  0  0  0
    5.4087   -7.2547    0.0000 C   0  0  0  0  0  0  0  0  0  0  0  0
    6.1231   -6.8422    0.0000 C   0  0  0  0  0  0  0  0  0  0  0  0
    6.1231   -6.0172    0.0000 O   0  0  0  0  0  0  0  0  0  0  0  0
    6.8376   -7.2547    0.0000 C   0  0  0  0  0  0  0  0  0  0  0  0
    8.9810   -6.8422    0.0000 C   0  0  0  0  0  0  0  0  0  0  0  0
    3.2653   -8.4922    0.0000 O   0  0  0  0  0  0  0  0  0  0  0  0
    8.9810   -8.4922    0.0000 O   0  0  0  0  0  0  0  0  0  0  0  0
    7.5521   -6.0172    0.0000 O   0  0  0  0  0  0  0  0  0  0  0  0
    8.2645  -10.5577    0.0000 C   0  0  2  0  0  0  0  0  0  0  0  0
    8.9790  -10.9701    0.0000 C   0  0  2  0  0  0  0  0  0  0  0  0
    9.6934  -10.5575    0.0000 C   0  0  1  0  0  0  0  0  0  0  0  0
    9.6934   -9.7325    0.0000 C   0  0  2  0  0  0  0  0  0  0  0  0
    8.9788   -9.3201    0.0000 C   0  0  1  0  0  0  0  0  0  0  0  0
    8.2644   -9.7327    0.0000 O   0  0  0  0  0  0  0  0  0  0  0  0
    7.5501  -10.9703    0.0000 C   0  0  0  0  0  0  0  0  0  0  0  0
   10.4080  -10.9700    0.0000 O   0  0  0  0  0  0  0  0  0  0  0  0
    8.9791  -11.7951    0.0000 O   0  0  0  0  0  0  0  0  0  0  0  0
   10.4078   -9.3200    0.0000 O   0  0  0  0  0  0  0  0  0  0  0  0
    7.5502  -11.7953    0.0000 O   0  0  0  0  0  0  0  0  0  0  0  0
  1  2  1  0  0  0  0
  2  3  2  0  0  0  0
  3  4  1  0  0  0  0
  4  5  2  0  0  0  0
  5  6  1  0  0  0  0
  6  7  2  0  0  0  0
  6  8  1  0  0  0  0
  8  9  1  0  0  0  0
  9 10  2  0  0  0  0
 10 11  1  0  0  0  0
 11 12  2  0  0  0  0
 12 13  1  0  0  0  0
  8 13  2  0  0  0  0
 13 14  1  0  0  0  0
 14 15  2  0  0  0  0
 14 16  1  0  0  0  0
  5 16  1  0  0  0  0
  1 16  2  0  0  0  0
  2 17  1  0  0  0  0
 10 18  1  0  0  0  0
  3 19  1  0  0  0  0
  1 20  1  0  0  0  0
 21 22  1  0  0  0  0
 22 23  1  0  0  0  0
 23 24  1  0  0  0  0
 24 25  1  0  0  0  0
 25 26  1  0  0  0  0
 26 21  1  0  0  0  0
 21 27  1  1  0  0  0
 23 28  1  1  0  0  0
 22 29  1  6  0  0  0
 24 30  1  6  0  0  0
 27 31  1  0  0  0  0
 25 19  1  1  0  0  0
M  END
>  <cdx:fragmentId>
336

$$$$
