98882.cdx
  Mrv1902 05222410282D          

 18 20  0  0  0  0            999 V2000
    9.1247   -7.1716    0.0000 C   0  0  0  0  0  0  0  0  0  0  0  0
    6.9941   -5.0960    0.0000 C   0  0  0  0  0  0  0  0  0  0  0  0
    4.8869   -7.1455    0.0000 O   0  0  0  0  0  0  0  0  0  0  0  0
    5.9329   -8.6040    0.0000 C   0  0  0  0  0  0  0  0  0  0  0  0
    6.9890   -5.9209    0.0000 H   0  0  0  0  0  0  0  0  0  0  0  0
    6.2009   -6.4862    0.0000 O   0  0  0  0  0  0  0  0  0  0  0  0
    5.7118   -7.1506    0.0000 C   0  0  0  0  0  0  0  0  0  0  0  0
    6.1926   -7.8210    0.0000 C   0  0  2  0  0  0  0  0  0  0  0  0
    6.9839   -6.7459    0.0000 C   0  0  1  0  0  0  0  0  0  0  0  0
    6.9788   -7.5709    0.0000 C   0  0  0  0  0  0  0  0  0  0  0  0
    7.6907   -7.9878    0.0000 C   0  0  0  0  0  0  0  0  0  0  0  0
    8.4077   -7.5797    0.0000 C   0  0  0  0  0  0  0  0  0  0  0  0
    7.7060   -5.5129    0.0000 C   0  0  0  0  0  0  0  0  0  0  0  0
    7.7009   -6.3378    0.0000 C   0  0  1  0  0  0  0  0  0  0  0  0
    8.4128   -6.7547    0.0000 C   0  0  1  0  0  0  0  0  0  0  0  0
    9.1298   -6.3467    0.0000 C   0  0  0  0  0  0  0  0  0  0  0  0
    9.1349   -5.5217    0.0000 C   0  0  0  0  0  0  0  0  0  0  0  0
    8.4230   -5.1048    0.0000 C   0  0  0  0  0  0  0  0  0  0  0  0
 15  1  1  1  0  0  0
 13  2  2  0  0  0  0
  7  3  2  0  0  0  0
  8  4  1  6  0  0  0
 14  5  1  6  0  0  0
  9  6  1  6  0  0  0
  7  6  1  0  0  0  0
  8  7  1  0  0  0  0
 10  8  1  0  0  0  0
  9 14  1  0  0  0  0
 10  9  1  0  0  0  0
 11 10  1  0  0  0  0
 12 11  1  0  0  0  0
 15 12  1  0  0  0  0
 13 18  1  0  0  0  0
 14 13  1  0  0  0  0
 15 14  1  0  0  0  0
 16 15  1  0  0  0  0
 17 16  1  0  0  0  0
 18 17  1  0  0  0  0
M  END
>  <cdx:fragmentId>
5

$$$$
