98886.cdx
  Mrv1902 05222410262D          

 19 21  0  0  0  0            999 V2000
    5.7249   -7.8788    0.0000 C   0  0  1  0  0  0  0  0  0  0  0  0
    5.7249   -8.7037    0.0000 C   0  0  0  0  0  0  0  0  0  0  0  0
    6.4394   -9.1162    0.0000 C   0  0  0  0  0  0  0  0  0  0  0  0
    7.1539   -8.7037    0.0000 C   0  0  1  0  0  0  0  0  0  0  0  0
    7.1539   -7.8788    0.0000 C   0  0  1  0  0  0  0  0  0  0  0  0
    6.4394   -7.4663    0.0000 C   0  0  0  0  0  0  0  0  0  0  0  0
    4.9403   -7.6238    0.0000 O   0  0  0  0  0  0  0  0  0  0  0  0
    4.4554   -8.2912    0.0000 C   0  0  0  0  0  0  0  0  0  0  0  0
    4.9403   -8.9587    0.0000 C   0  0  0  0  0  0  0  0  0  0  0  0
    7.8683   -8.2912    0.0000 C   0  0  2  0  0  0  0  0  0  0  0  0
    3.6304   -8.2912    0.0000 O   0  0  0  0  0  0  0  0  0  0  0  0
    8.6933   -8.2912    0.0000 C   0  0  0  0  0  0  0  0  0  0  0  0
    9.1058   -7.5768    0.0000 C   0  0  0  0  0  0  0  0  0  0  0  0
    9.9308   -7.5768    0.0000 C   0  0  0  0  0  0  0  0  0  0  0  0
   10.3433   -6.8623    0.0000 C   0  0  0  0  0  0  0  0  0  0  0  0
   10.3433   -8.2912    0.0000 O   0  0  0  0  0  0  0  0  0  0  0  0
    7.5664   -7.1643    0.0000 C   0  0  0  0  0  0  0  0  0  0  0  0
    7.5664   -9.4182    0.0000 H   0  0  0  0  0  0  0  0  0  0  0  0
    5.6387   -7.0583    0.0000 H   0  0  0  0  0  0  0  0  0  0  0  0
  1  2  1  0  0  0  0
  2  3  1  0  0  0  0
  3  4  1  0  0  0  0
  4  5  1  0  0  0  0
  5  6  1  0  0  0  0
  6  1  1  0  0  0  0
  1  7  1  0  0  0  0
  7  8  1  0  0  0  0
  8  9  1  0  0  0  0
  9  2  2  0  0  0  0
  4 10  1  0  0  0  0
 10  5  1  0  0  0  0
  8 11  2  0  0  0  0
 10 12  1  6  0  0  0
 12 13  1  0  0  0  0
 13 14  1  0  0  0  0
 14 15  1  0  0  0  0
 14 16  2  0  0  0  0
  5 17  1  6  0  0  0
  4 18  1  6  0  0  0
  1 19  1  1  0  0  0
M  END
>  <cdx:fragmentId>
5

$$$$
