98881.cdx
  Mrv1902 05222410272D          

 13 14  0  0  0  0            999 V2000
    4.2983   -5.9327    0.0000 C   0  0  0  0  0  0  0  0  0  0  0  0
    3.5183   -6.2014    0.0000 C   0  0  0  0  0  0  0  0  0  0  0  0
    3.5327   -7.0262    0.0000 C   0  0  0  0  0  0  0  0  0  0  0  0
    4.3217   -7.2674    0.0000 C   0  0  0  0  0  0  0  0  0  0  0  0
    4.7949   -6.5916    0.0000 N   0  0  0  0  0  0  0  0  0  0  0  0
    5.6199   -6.5916    0.0000 C   0  0  1  0  0  0  0  0  0  0  0  0
    6.1048   -7.2590    0.0000 C   0  0  1  0  0  0  0  0  0  0  0  0
    6.8894   -7.0041    0.0000 C   0  0  2  0  0  0  0  0  0  0  0  0
    6.8894   -6.1791    0.0000 O   0  0  0  0  0  0  0  0  0  0  0  0
    6.1048   -5.9241    0.0000 C   0  0  0  0  0  0  0  0  0  0  0  0
    5.8499   -5.1395    0.0000 O   0  0  0  0  0  0  0  0  0  0  0  0
    5.8499   -8.0436    0.0000 C   0  0  0  0  0  0  0  0  0  0  0  0
    7.5569   -7.4890    0.0000 C   0  0  0  0  0  0  0  0  0  0  0  0
  1  2  2  0  0  0  0
  2  3  1  0  0  0  0
  3  4  2  0  0  0  0
  4  5  1  0  0  0  0
  5  1  1  0  0  0  0
  6  5  1  6  0  0  0
  6  7  1  0  0  0  0
  7  8  1  0  0  0  0
  8  9  1  0  0  0  0
  9 10  1  0  0  0  0
 10  6  1  0  0  0  0
 10 11  2  0  0  0  0
  7 12  1  1  0  0  0
  8 13  1  6  0  0  0
M  END
>  <cdx:fragmentId>
5

$$$$
