98896.cdx
  Mrv1902 05222410282D          

 50 54  0  0  0  0            999 V2000
    3.4562   -7.5625    0.0000 C   0  0  0  0  0  0  0  0  0  0  0  0
    3.4562   -8.3875    0.0000 C   0  0  0  0  0  0  0  0  0  0  0  0
    4.1706   -8.8000    0.0000 C   0  0  0  0  0  0  0  0  0  0  0  0
    4.8851   -8.3875    0.0000 C   0  0  0  0  0  0  0  0  0  0  0  0
    4.8851   -7.5625    0.0000 C   0  0  0  0  0  0  0  0  0  0  0  0
    4.1706   -7.1500    0.0000 C   0  0  0  0  0  0  0  0  0  0  0  0
    5.5996   -8.8000    0.0000 C   0  0  2  0  0  0  0  0  0  0  0  0
    6.3141   -8.3875    0.0000 C   0  0  0  0  0  0  0  0  0  0  0  0
    6.3141   -7.5625    0.0000 C   0  0  0  0  0  0  0  0  0  0  0  0
    5.5996   -7.1500    0.0000 C   0  0  0  0  0  0  0  0  0  0  0  0
    7.0285   -8.8000    0.0000 C   0  0  0  0  0  0  0  0  0  0  0  0
    7.7430   -8.3875    0.0000 N   0  0  0  0  0  0  0  0  0  0  0  0
    7.7430   -7.5625    0.0000 N   0  0  0  0  0  0  0  0  0  0  0  0
    7.0285   -7.1500    0.0000 C   0  0  0  0  0  0  0  0  0  0  0  0
    8.4575   -8.8000    0.0000 C   0  0  0  0  0  0  0  0  0  0  0  0
    9.1719   -8.3875    0.0000 C   0  0  0  0  0  0  0  0  0  0  0  0
    9.1719   -7.5625    0.0000 C   0  0  0  0  0  0  0  0  0  0  0  0
    8.4575   -7.1500    0.0000 C   0  0  0  0  0  0  0  0  0  0  0  0
    9.8864   -8.8000    0.0000 C   0  0  0  0  0  0  0  0  0  0  0  0
   10.6009   -8.3875    0.0000 C   0  0  0  0  0  0  0  0  0  0  0  0
   10.6009   -7.5625    0.0000 C   0  0  0  0  0  0  0  0  0  0  0  0
    9.8864   -7.1500    0.0000 C   0  0  0  0  0  0  0  0  0  0  0  0
   11.3154   -7.1500    0.0000 C   0  0  0  0  0  0  0  0  0  0  0  0
   11.3154   -6.3250    0.0000 C   0  0  0  0  0  0  0  0  0  0  0  0
   10.6009   -5.9125    0.0000 C   0  0  0  0  0  0  0  0  0  0  0  0
    9.8864   -6.3250    0.0000 C   0  0  0  0  0  0  0  0  0  0  0  0
    9.8864   -9.6250    0.0000 C   0  0  0  0  0  0  0  0  0  0  0  0
   10.6009  -10.0375    0.0000 C   0  0  0  0  0  0  0  0  0  0  0  0
   11.3154   -9.6250    0.0000 C   0  0  0  0  0  0  0  0  0  0  0  0
   11.3154   -8.8000    0.0000 C   0  0  0  0  0  0  0  0  0  0  0  0
    4.1706   -9.6250    0.0000 O   0  0  0  0  0  0  0  0  0  0  0  0
    4.8851  -10.0375    0.0000 C   0  0  0  0  0  0  0  0  0  0  0  0
    5.5996   -9.6250    0.0000 C   0  0  0  0  0  0  0  0  0  0  0  0
    4.8851  -10.8625    0.0000 C   0  0  0  0  0  0  0  0  0  0  0  0
    5.5996  -11.2750    0.0000 C   0  0  0  0  0  0  0  0  0  0  0  0
    6.3141  -10.8625    0.0000 C   0  0  0  0  0  0  0  0  0  0  0  0
    6.3141  -10.0375    0.0000 C   0  0  0  0  0  0  0  0  0  0  0  0
   12.0298   -5.9125    0.0000 O   0  0  0  0  0  0  0  0  0  0  0  0
   12.0298  -10.0375    0.0000 O   0  0  0  0  0  0  0  0  0  0  0  0
    7.0285   -6.3250    0.0000 O   0  0  0  0  0  0  0  0  0  0  0  0
    2.7417   -7.1500    0.0000 O   0  0  0  0  0  0  0  0  0  0  0  0
    2.7417   -8.8000    0.0000 O   0  0  0  0  0  0  0  0  0  0  0  0
    3.4562  -10.0375    0.0000 C   0  0  0  0  0  0  0  0  0  0  0  0
    4.1706  -11.2750    0.0000 O   0  0  0  0  0  0  0  0  0  0  0  0
    4.1706  -12.1000    0.0000 C   0  0  0  0  0  0  0  0  0  0  0  0
    5.5996  -12.1000    0.0000 O   0  0  0  0  0  0  0  0  0  0  0  0
    7.0285  -11.2750    0.0000 O   0  0  0  0  0  0  0  0  0  0  0  0
    7.0285   -9.6250    0.0000 O   0  0  0  0  0  0  0  0  0  0  0  0
    2.0272   -7.5625    0.0000 C   0  0  0  0  0  0  0  0  0  0  0  0
    7.0285  -12.1000    0.0000 C   0  0  0  0  0  0  0  0  0  0  0  0
  1  2  2  0  0  0  0
  2  3  1  0  0  0  0
  3  4  2  0  0  0  0
  4  5  1  0  0  0  0
  5  6  2  0  0  0  0
  6  1  1  0  0  0  0
  4  7  1  0  0  0  0
  7  8  1  0  0  0  0
  8  9  1  0  0  0  0
  9 10  2  0  0  0  0
 10  5  1  0  0  0  0
  8 11  1  0  0  0  0
 11 12  1  0  0  0  0
 13 14  1  0  0  0  0
 14  9  1  0  0  0  0
 12 15  1  0  0  0  0
 15 16  1  0  0  0  0
 17 18  1  0  0  0  0
 18 13  1  0  0  0  0
 16 19  1  0  0  0  0
 19 20  2  0  0  0  0
 21 22  2  0  0  0  0
 22 17  1  0  0  0  0
 21 23  1  0  0  0  0
 23 24  2  0  0  0  0
 24 25  1  0  0  0  0
 25 26  2  0  0  0  0
 26 22  1  0  0  0  0
 19 27  1  0  0  0  0
 27 28  2  0  0  0  0
 28 29  1  0  0  0  0
 29 30  2  0  0  0  0
 30 20  1  0  0  0  0
  3 31  1  0  0  0  0
 32 33  2  0  0  0  0
  7 33  1  6  0  0  0
 32 34  1  0  0  0  0
 34 35  2  0  0  0  0
 35 36  1  0  0  0  0
 36 37  2  0  0  0  0
 37 33  1  0  0  0  0
 24 38  1  0  0  0  0
 29 39  1  0  0  0  0
 14 40  2  0  0  0  0
  1 41  1  0  0  0  0
  2 42  1  0  0  0  0
 31 43  1  0  0  0  0
 34 44  1  0  0  0  0
 44 45  1  0  0  0  0
 35 46  1  0  0  0  0
 36 47  1  0  0  0  0
 11 48  2  0  0  0  0
 41 49  1  0  0  0  0
 47 50  1  0  0  0  0
M  END
>  <cdx:fragmentId>
5

$$$$
