98897.cdx
  Mrv1902 05222410282D          

 10 10  0  0  0  0            999 V2000
    5.7799   -7.4250    0.0000 C   0  0  0  0  0  0  0  0  0  0  0  0
    5.7799   -8.2500    0.0000 C   0  0  0  0  0  0  0  0  0  0  0  0
    6.4944   -8.6625    0.0000 C   0  0  0  0  0  0  0  0  0  0  0  0
    7.2089   -8.2500    0.0000 C   0  0  0  0  0  0  0  0  0  0  0  0
    7.2089   -7.4250    0.0000 C   0  0  0  0  0  0  0  0  0  0  0  0
    6.4944   -7.0125    0.0000 O   0  0  0  0  0  0  0  0  0  0  0  0
    5.0655   -7.0125    0.0000 O   0  0  0  0  0  0  0  0  0  0  0  0
    7.9233   -8.6625    0.0000 C   0  0  0  0  0  0  0  0  0  0  0  0
    8.6378   -8.2500    0.0000 O   0  0  0  0  0  0  0  0  0  0  0  0
    7.9233   -9.4875    0.0000 O   0  0  0  0  0  0  0  0  0  0  0  0
  1  2  1  0  0  0  0
  2  3  2  0  0  0  0
  3  4  1  0  0  0  0
  4  5  2  0  0  0  0
  5  6  1  0  0  0  0
  6  1  1  0  0  0  0
  1  7  2  0  0  0  0
  4  8  1  0  0  0  0
  8  9  1  0  0  0  0
  8 10  2  0  0  0  0
M  END
>  <cdx:fragmentId>
5

$$$$
