98893.cdx
  Mrv1902 05222410262D          

 32 34  0  0  0  0            999 V2000
    6.2072   -7.5830    0.0000 C   0  0  2  0  0  0  0  0  0  0  0  0
    6.2061   -8.4080    0.0000 C   0  0  2  0  0  0  0  0  0  0  0  0
    7.0311   -8.4091    0.0000 C   0  0  2  0  0  0  0  0  0  0  0  0
    7.0322   -7.5841    0.0000 C   0  0  2  0  0  0  0  0  0  0  0  0
    5.6220   -8.9906    0.0000 C   0  0  0  0  0  0  0  0  0  0  0  0
    7.6137   -8.9933    0.0000 C   0  0  0  0  0  0  0  0  0  0  0  0
    4.8253   -8.7760    0.0000 C   0  0  0  0  0  0  0  0  0  0  0  0
    4.2412   -9.3586    0.0000 C   0  0  0  0  0  0  0  0  0  0  0  0
    4.4537  -10.1558    0.0000 C   0  0  0  0  0  0  0  0  0  0  0  0
    5.2503  -10.3703    0.0000 C   0  0  0  0  0  0  0  0  0  0  0  0
    5.8344   -9.7878    0.0000 C   0  0  0  0  0  0  0  0  0  0  0  0
    7.3991   -9.7899    0.0000 C   0  0  0  0  0  0  0  0  0  0  0  0
    7.9817  -10.3740    0.0000 C   0  0  0  0  0  0  0  0  0  0  0  0
    8.7788  -10.1615    0.0000 C   0  0  0  0  0  0  0  0  0  0  0  0
    8.9934   -9.3649    0.0000 C   0  0  0  0  0  0  0  0  0  0  0  0
    8.4108   -8.7808    0.0000 C   0  0  0  0  0  0  0  0  0  0  0  0
    3.8695  -10.7383    0.0000 O   0  0  0  0  0  0  0  0  0  0  0  0
    3.4446   -9.1440    0.0000 O   0  0  0  0  0  0  0  0  0  0  0  0
    2.8605   -9.7266    0.0000 C   0  0  0  0  0  0  0  0  0  0  0  0
    9.7906   -9.1525    0.0000 O   0  0  0  0  0  0  0  0  0  0  0  0
    9.3614  -10.7457    0.0000 O   0  0  0  0  0  0  0  0  0  0  0  0
   10.3732   -9.7366    0.0000 C   0  0  0  0  0  0  0  0  0  0  0  0
    5.6246   -6.9989    0.0000 C   0  0  0  0  0  0  0  0  0  0  0  0
    7.6163   -7.0015    0.0000 C   0  0  0  0  0  0  0  0  0  0  0  0
    5.8392   -6.2023    0.0000 O   0  0  0  0  0  0  0  0  0  0  0  0
    4.8274   -7.2113    0.0000 O   0  0  0  0  0  0  0  0  0  0  0  0
    8.4129   -7.2161    0.0000 O   0  0  0  0  0  0  0  0  0  0  0  0
    7.4039   -6.2044    0.0000 O   0  0  0  0  0  0  0  0  0  0  0  0
    5.3822   -7.5830    0.0000 H   0  0  0  0  0  0  0  0  0  0  0  0
    7.8572   -7.5841    0.0000 H   0  0  0  0  0  0  0  0  0  0  0  0
    7.8561   -8.4091    0.0000 H   0  0  0  0  0  0  0  0  0  0  0  0
    5.3811   -8.4080    0.0000 H   0  0  0  0  0  0  0  0  0  0  0  0
  1  2  1  0  0  0  0
  2  3  1  0  0  0  0
  3  4  1  0  0  0  0
  4  1  1  0  0  0  0
  2  5  1  6  0  0  0
  3  6  1  6  0  0  0
  5  7  2  0  0  0  0
  7  8  1  0  0  0  0
  8  9  2  0  0  0  0
  9 10  1  0  0  0  0
 10 11  2  0  0  0  0
 11  5  1  0  0  0  0
  6 12  2  0  0  0  0
 12 13  1  0  0  0  0
 13 14  2  0  0  0  0
 14 15  1  0  0  0  0
 15 16  2  0  0  0  0
 16  6  1  0  0  0  0
  9 17  1  0  0  0  0
  8 18  1  0  0  0  0
 18 19  1  0  0  0  0
 15 20  1  0  0  0  0
 14 21  1  0  0  0  0
 20 22  1  0  0  0  0
  1 23  1  1  0  0  0
  4 24  1  1  0  0  0
 23 25  1  0  0  0  0
 23 26  2  0  0  0  0
 24 27  2  0  0  0  0
 24 28  1  0  0  0  0
  1 29  1  6  0  0  0
  4 30  1  6  0  0  0
  3 31  1  1  0  0  0
  2 32  1  1  0  0  0
M  END
>  <cdx:fragmentId>
5

$$$$
