98892.cdx
  Mrv1902 05222410262D          

 10 10  0  0  0  0            999 V2000
    6.4669   -7.7550    0.0000 O   0  0  0  0  0  0  0  0  0  0  0  0
    6.4669   -8.5800    0.0000 C   0  0  0  0  0  0  0  0  0  0  0  0
    7.2919   -8.5800    0.0000 C   0  0  0  0  0  0  0  0  0  0  0  0
    7.2919   -7.7550    0.0000 C   0  0  0  0  0  0  0  0  0  0  0  0
    5.8835   -9.1634    0.0000 O   0  0  0  0  0  0  0  0  0  0  0  0
    7.8753   -9.1634    0.0000 C   0  0  0  0  0  0  0  0  0  0  0  0
    7.2919   -6.9300    0.0000 C   0  0  0  0  0  0  0  0  0  0  0  0
    6.5774   -6.5175    0.0000 C   0  0  0  0  0  0  0  0  0  0  0  0
    8.1169   -7.7550    0.0000 C   0  0  0  0  0  0  0  0  0  0  0  0
    8.5294   -7.0405    0.0000 C   0  0  0  0  0  0  0  0  0  0  0  0
  1  2  1  0  0  0  0
  2  3  1  0  0  0  0
  3  4  1  0  0  0  0
  4  1  1  0  0  0  0
  2  5  2  0  0  0  0
  3  6  2  0  0  0  0
  4  7  1  0  0  0  0
  7  8  1  0  0  0  0
  4  9  1  0  0  0  0
  9 10  1  0  0  0  0
M  END
>  <cdx:fragmentId>
5

$$$$
