98895.cdx
  Mrv1902 05222410272D          

 23 24  0  0  0  0            999 V2000
    3.5524   -8.6762    0.0000 C   0  0  0  0  0  0  0  0  0  0  0  0
    3.5524   -9.5013    0.0000 C   0  0  0  0  0  0  0  0  0  0  0  0
    4.2669   -9.9138    0.0000 C   0  0  0  0  0  0  0  0  0  0  0  0
    4.9814   -9.5013    0.0000 C   0  0  0  0  0  0  0  0  0  0  0  0
    4.9814   -8.6762    0.0000 C   0  0  0  0  0  0  0  0  0  0  0  0
    4.2669   -8.2637    0.0000 C   0  0  0  0  0  0  0  0  0  0  0  0
    2.8380   -8.2637    0.0000 O   0  0  0  0  0  0  0  0  0  0  0  0
    2.1235   -8.6762    0.0000 C   0  0  0  0  0  0  0  0  0  0  0  0
    2.8380   -9.9138    0.0000 O   0  0  0  0  0  0  0  0  0  0  0  0
    5.6958   -8.2637    0.0000 C   0  0  0  0  0  0  0  0  0  0  0  0
    6.4103   -8.6762    0.0000 C   0  0  0  0  0  0  0  0  0  0  0  0
    7.1248   -8.2637    0.0000 C   0  0  0  0  0  0  0  0  0  0  0  0
    7.8393   -8.6762    0.0000 N   0  0  0  0  0  0  0  0  0  0  0  0
    7.1248   -7.4387    0.0000 O   0  0  0  0  0  0  0  0  0  0  0  0
    8.5537   -8.2637    0.0000 C   0  0  0  0  0  0  0  0  0  0  0  0
    9.2682   -8.6762    0.0000 C   0  0  0  0  0  0  0  0  0  0  0  0
    9.9827   -8.2637    0.0000 C   0  0  0  0  0  0  0  0  0  0  0  0
   10.6971   -8.6762    0.0000 C   0  0  0  0  0  0  0  0  0  0  0  0
   11.4116   -8.2637    0.0000 C   0  0  0  0  0  0  0  0  0  0  0  0
   11.4116   -7.4387    0.0000 C   0  0  0  0  0  0  0  0  0  0  0  0
   10.6971   -7.0262    0.0000 C   0  0  0  0  0  0  0  0  0  0  0  0
    9.9827   -7.4387    0.0000 C   0  0  0  0  0  0  0  0  0  0  0  0
   12.1261   -7.0262    0.0000 O   0  0  0  0  0  0  0  0  0  0  0  0
  1  2  2  0  0  0  0
  2  3  1  0  0  0  0
  3  4  2  0  0  0  0
  4  5  1  0  0  0  0
  5  6  2  0  0  0  0
  6  1  1  0  0  0  0
  1  7  1  0  0  0  0
  7  8  1  0  0  0  0
  2  9  1  0  0  0  0
  5 10  1  0  0  0  0
 10 11  1  0  0  0  0
 11 12  1  0  0  0  0
 12 13  1  0  0  0  0
 12 14  2  0  0  0  0
 13 15  1  0  0  0  0
 15 16  1  0  0  0  0
 16 17  1  0  0  0  0
 17 18  2  0  0  0  0
 18 19  1  0  0  0  0
 19 20  2  0  0  0  0
 20 21  1  0  0  0  0
 21 22  2  0  0  0  0
 22 17  1  0  0  0  0
 20 23  1  0  0  0  0
M  END
>  <cdx:fragmentId>
5

$$$$
