98890.cdx
  Mrv1902 05222410262D          

 51 54  0  0  0  0            999 V2000
   11.3865   -4.8975    0.0000 C   0  0  0  0  0  0  0  0  0  0  0  0
   10.6720   -5.3100    0.0000 O   0  0  0  0  0  0  0  0  0  0  0  0
   11.3865   -4.0725    0.0000 C   0  0  0  0  0  0  0  0  0  0  0  0
   10.6720   -3.6600    0.0000 O   0  0  0  0  0  0  0  0  0  0  0  0
    8.5286   -4.0725    0.0000 C   0  0  0  0  0  0  0  0  0  0  0  0
    9.2431   -3.6600    0.0000 C   0  0  0  0  0  0  0  0  0  0  0  0
    9.9575   -4.0725    0.0000 C   0  0  0  0  0  0  0  0  0  0  0  0
    9.9575   -4.8975    0.0000 C   0  0  0  0  0  0  0  0  0  0  0  0
    9.2431   -5.3100    0.0000 C   0  0  0  0  0  0  0  0  0  0  0  0
    8.5286   -4.8975    0.0000 C   0  0  0  0  0  0  0  0  0  0  0  0
    8.5286   -6.5475    0.0000 O   0  0  0  0  0  0  0  0  0  0  0  0
    4.9563   -7.7850    0.0000 C   0  0  0  0  0  0  0  0  0  0  0  0
    5.6707   -7.3725    0.0000 O   0  0  0  0  0  0  0  0  0  0  0  0
    3.5273   -6.1350    0.0000 C   0  0  0  0  0  0  0  0  0  0  0  0
    4.2418   -6.5475    0.0000 O   0  0  0  0  0  0  0  0  0  0  0  0
    3.5273   -5.3100    0.0000 C   0  0  0  0  0  0  0  0  0  0  0  0
    4.2418   -4.8975    0.0000 O   0  0  0  0  0  0  0  0  0  0  0  0
    4.9563   -3.6600    0.0000 C   0  0  0  0  0  0  0  0  0  0  0  0
    5.6707   -4.0725    0.0000 O   0  0  0  0  0  0  0  0  0  0  0  0
    7.0997   -7.3725    0.0000 O   0  0  0  0  0  0  0  0  0  0  0  0
    7.0997   -4.8975    0.0000 O   0  0  0  0  0  0  0  0  0  0  0  0
    6.3852   -5.3100    0.0000 C   0  0  0  0  0  0  0  0  0  0  0  0
    5.6707   -4.8975    0.0000 C   0  0  0  0  0  0  0  0  0  0  0  0
    4.9563   -5.3100    0.0000 C   0  0  0  0  0  0  0  0  0  0  0  0
    4.9563   -6.1350    0.0000 C   0  0  0  0  0  0  0  0  0  0  0  0
    5.6707   -6.5475    0.0000 C   0  0  0  0  0  0  0  0  0  0  0  0
    6.3852   -6.1350    0.0000 C   0  0  0  0  0  0  0  0  0  0  0  0
    7.0997   -6.5475    0.0000 C   0  0  0  0  0  0  0  0  0  0  0  0
    7.8141   -6.1350    0.0000 C   0  0  0  0  0  0  0  0  0  0  0  0
    7.8141   -5.3100    0.0000 C   0  0  0  0  0  0  0  0  0  0  0  0
    7.8223   -8.6056    0.0000 C   0  0  2  0  0  0  0  0  0  0  0  0
    8.5371   -9.0175    0.0000 C   0  0  2  0  0  0  0  0  0  0  0  0
    9.2513   -8.6044    0.0000 C   0  0  1  0  0  0  0  0  0  0  0  0
    9.2506   -7.7794    0.0000 C   0  0  2  0  0  0  0  0  0  0  0  0
    8.5358   -7.3675    0.0000 C   0  0  1  0  0  0  0  0  0  0  0  0
    7.8216   -7.7806    0.0000 O   0  0  0  0  0  0  0  0  0  0  0  0
    7.1082   -9.0187    0.0000 C   0  0  0  0  0  0  0  0  0  0  0  0
    9.9661   -9.0163    0.0000 O   0  0  0  0  0  0  0  0  0  0  0  0
    8.5378   -9.8425    0.0000 O   0  0  0  0  0  0  0  0  0  0  0  0
    9.9647   -7.3663    0.0000 O   0  0  0  0  0  0  0  0  0  0  0  0
    7.1089   -9.8437    0.0000 O   0  0  0  0  0  0  0  0  0  0  0  0
    6.3923  -10.2420    0.0000 C   0  0  0  0  0  0  0  0  0  0  0  0
    6.3914  -11.0670    0.0000 C   0  0  0  0  0  0  0  0  0  0  0  0
    5.6765  -11.4788    0.0000 C   0  0  0  0  0  0  0  0  0  0  0  0
    5.6756  -12.3038    0.0000 C   0  0  0  0  0  0  0  0  0  0  0  0
    4.9607  -12.7156    0.0000 C   0  0  0  0  0  0  0  0  0  0  0  0
    5.6782   -9.8288    0.0000 O   0  0  0  0  0  0  0  0  0  0  0  0
    4.2467  -12.3023    0.0000 O   0  0  0  0  0  0  0  0  0  0  0  0
    4.9599  -13.5406    0.0000 O   0  0  0  0  0  0  0  0  0  0  0  0
    4.8515  -11.4788    0.0000 O   0  0  0  0  0  0  0  0  0  0  0  0
    5.2640  -10.7643    0.0000 C   0  0  0  0  0  0  0  0  0  0  0  0
 30 10  1  0  0  0  0
  8  2  1  0  0  0  0
  2  1  1  0  0  0  0
  7  4  1  0  0  0  0
  4  3  1  0  0  0  0
 10  5  2  0  0  0  0
  6  5  1  0  0  0  0
  7  6  2  0  0  0  0
  8  7  1  0  0  0  0
  9  8  2  0  0  0  0
 10  9  1  0  0  0  0
 29 11  1  0  0  0  0
 26 13  1  0  0  0  0
 13 12  1  0  0  0  0
 25 15  1  0  0  0  0
 15 14  1  0  0  0  0
 24 17  1  0  0  0  0
 17 16  1  0  0  0  0
 23 19  1  0  0  0  0
 19 18  1  0  0  0  0
 28 20  2  0  0  0  0
 30 21  1  0  0  0  0
 22 21  1  0  0  0  0
 27 22  2  0  0  0  0
 23 22  1  0  0  0  0
 24 23  2  0  0  0  0
 25 24  1  0  0  0  0
 26 25  2  0  0  0  0
 27 26  1  0  0  0  0
 28 27  1  0  0  0  0
 29 28  1  0  0  0  0
 30 29  2  0  0  0  0
 31 32  1  0  0  0  0
 32 33  1  0  0  0  0
 33 34  1  0  0  0  0
 34 35  1  0  0  0  0
 35 36  1  0  0  0  0
 36 31  1  0  0  0  0
 31 37  1  1  0  0  0
 33 38  1  1  0  0  0
 32 39  1  6  0  0  0
 34 40  1  6  0  0  0
 37 41  1  0  0  0  0
 35 11  1  1  0  0  0
 42 43  1  0  0  0  0
 43 44  1  0  0  0  0
 44 45  1  0  0  0  0
 45 46  1  0  0  0  0
 42 47  2  0  0  0  0
 46 48  2  0  0  0  0
 46 49  1  0  0  0  0
 42 41  1  0  0  0  0
 44 50  1  0  0  0  0
 44 51  1  0  0  0  0
M  END
>  <cdx:fragmentId>
5

$$$$
