98902.cdx
  Mrv1902 05222410192D          

 35 36  0  0  0  0            999 V2000
    5.9576   -5.9125    0.0000 C   0  0  0  0  0  0  0  0  0  0  0  0
    6.6721   -4.6750    0.0000 C   0  0  0  0  0  0  0  0  0  0  0  0
    7.3866   -5.0875    0.0000 C   0  0  0  0  0  0  0  0  0  0  0  0
    6.6721   -3.8500    0.0000 C   0  0  0  0  0  0  0  0  0  0  0  0
    7.3866   -3.4375    0.0000 O   0  0  0  0  0  0  0  0  0  0  0  0
    7.3866   -5.9125    0.0000 C   0  0  0  0  0  0  0  0  0  0  0  0
    8.1010   -6.3250    0.0000 C   0  0  1  0  0  0  0  0  0  0  0  0
    8.1010   -7.1500    0.0000 C   0  0  2  0  0  0  0  0  0  0  0  0
    8.8155   -5.9125    0.0000 C   0  0  0  0  0  0  0  0  0  0  0  0
    9.5300   -6.3250    0.0000 C   0  0  0  0  0  0  0  0  0  0  0  0
    8.8155   -5.0875    0.0000 C   0  0  0  0  0  0  0  0  0  0  0  0
    9.5300   -4.6750    0.0000 O   0  0  0  0  0  0  0  0  0  0  0  0
    8.1010   -4.6750    0.0000 O   0  0  0  0  0  0  0  0  0  0  0  0
    9.5300   -3.8500    0.0000 C   0  0  0  0  0  0  0  0  0  0  0  0
    9.5300   -7.1500    0.0000 O   0  0  0  0  0  0  0  0  0  0  0  0
    8.8155   -7.5625    0.0000 C   0  0  1  0  0  0  0  0  0  0  0  0
    8.8155   -8.3875    0.0000 O   0  0  0  0  0  0  0  0  0  0  0  0
    8.1010   -8.8000    0.0000 C   0  0  2  0  0  0  0  0  0  0  0  0
    7.3866   -8.3875    0.0000 O   0  0  0  0  0  0  0  0  0  0  0  0
    6.6721   -8.8000    0.0000 C   0  0  1  0  0  0  0  0  0  0  0  0
    6.6721   -9.6250    0.0000 C   0  0  2  0  0  0  0  0  0  0  0  0
    7.3866  -10.0375    0.0000 C   0  0  1  0  0  0  0  0  0  0  0  0
    8.1010   -9.6250    0.0000 C   0  0  1  0  0  0  0  0  0  0  0  0
    8.1010   -5.5000    0.0000 H   0  0  0  0  0  0  0  0  0  0  0  0
    8.1010   -7.9750    0.0000 H   0  0  0  0  0  0  0  0  0  0  0  0
    5.9576   -8.3875    0.0000 C   0  0  0  0  0  0  0  0  0  0  0  0
    7.3866  -10.8625    0.0000 O   0  0  0  0  0  0  0  0  0  0  0  0
    5.9576  -10.0375    0.0000 O   0  0  0  0  0  0  0  0  0  0  0  0
    8.8155  -10.0375    0.0000 O   0  0  0  0  0  0  0  0  0  0  0  0
    5.2431   -8.8000    0.0000 O   0  0  0  0  0  0  0  0  0  0  0  0
    7.3866   -7.5625    0.0000 C   0  0  0  0  0  0  0  0  0  0  0  0
    6.6721   -7.1500    0.0000 C   0  0  0  0  0  0  0  0  0  0  0  0
    4.5287   -5.9125    0.0000 C   0  0  0  0  0  0  0  0  0  0  0  0
    5.2432   -6.3250    0.0000 C   0  0  0  0  0  0  0  0  0  0  0  0
    5.9576   -5.0875    0.0000 C   0  0  0  0  0  0  0  0  0  0  0  0
 35  2  2  0  0  0  0
  2  3  1  0  0  0  0
  2  4  1  0  0  0  0
  4  5  2  0  0  0  0
  3  6  2  0  0  0  0
  6  7  1  0  0  0  0
  7  8  1  0  0  0  0
  7  9  1  0  0  0  0
  9 10  2  0  0  0  0
  9 11  1  0  0  0  0
 11 12  1  0  0  0  0
 11 13  2  0  0  0  0
 12 14  1  0  0  0  0
 10 15  1  0  0  0  0
  8 16  1  0  0  0  0
 16 15  1  0  0  0  0
 16 17  1  1  0  0  0
 18 17  1  1  0  0  0
 18 19  1  0  0  0  0
 19 20  1  0  0  0  0
 20 21  1  0  0  0  0
 21 22  1  0  0  0  0
 22 23  1  0  0  0  0
 23 18  1  0  0  0  0
  7 24  1  1  0  0  0
  8 25  1  1  0  0  0
 20 26  1  1  0  0  0
 22 27  1  1  0  0  0
 21 28  1  6  0  0  0
 23 29  1  6  0  0  0
 26 30  1  0  0  0  0
  8 31  1  0  0  0  0
 31 32  2  0  0  0  0
 34 33  1  0  0  0  0
  1 34  1  0  0  0  0
 35  1  1  0  0  0  0
M  END
>  <cdx:fragmentId>
158

$$$$
