98906.cdx
  Mrv1902 05222410182D          

 30 32  0  0  0  0            999 V2000
    4.7349  -11.2475    0.0000 C   0  0  0  0  0  0  0  0  0  0  0  0
    4.7349  -12.0725    0.0000 C   0  0  2  0  0  0  0  0  0  0  0  0
    5.4494  -12.4850    0.0000 C   0  0  0  0  0  0  0  0  0  0  0  0
    6.1639  -12.0725    0.0000 C   0  0  1  0  0  0  0  0  0  0  0  0
    6.1639  -11.2475    0.0000 C   0  0  0  0  0  0  0  0  0  0  0  0
    5.4494  -10.8350    0.0000 C   0  0  0  0  0  0  0  0  0  0  0  0
    6.8783  -10.8350    0.0000 C   0  0  0  0  0  0  0  0  0  0  0  0
    6.1639   -9.5975    0.0000 C   0  0  0  0  0  0  0  0  0  0  0  0
    5.4494  -10.0100    0.0000 C   0  0  0  0  0  0  0  0  0  0  0  0
    6.1639   -8.7725    0.0000 C   0  0  0  0  0  0  0  0  0  0  0  0
    5.4494   -8.3600    0.0000 C   0  0  0  0  0  0  0  0  0  0  0  0
    6.8783   -8.3600    0.0000 C   0  0  1  0  0  0  0  0  0  0  0  0
    6.8783   -7.5350    0.0000 C   0  0  2  0  0  0  0  0  0  0  0  0
    6.1639   -7.1225    0.0000 C   0  0  0  0  0  0  0  0  0  0  0  0
    5.4494   -7.5350    0.0000 C   0  0  0  0  0  0  0  0  0  0  0  0
    7.6630   -8.6149    0.0000 C   0  0  0  0  0  0  0  0  0  0  0  0
    8.1479   -7.9475    0.0000 C   0  0  0  0  0  0  0  0  0  0  0  0
    7.6630   -7.2801    0.0000 C   0  0  2  0  0  0  0  0  0  0  0  0
    7.9179   -6.4954    0.0000 O   0  0  0  0  0  0  0  0  0  0  0  0
    8.7148   -6.2819    0.0000 C   0  0  0  0  0  0  0  0  0  0  0  0
    8.9283   -5.4850    0.0000 C   0  0  0  0  0  0  0  0  0  0  0  0
    9.7252   -5.2715    0.0000 C   0  0  0  0  0  0  0  0  0  0  0  0
    9.9387   -4.4746    0.0000 C   0  0  0  0  0  0  0  0  0  0  0  0
    9.1418   -4.2611    0.0000 C   0  0  0  0  0  0  0  0  0  0  0  0
   10.7356   -4.6881    0.0000 C   0  0  0  0  0  0  0  0  0  0  0  0
   10.1523   -3.6777    0.0000 O   0  0  0  0  0  0  0  0  0  0  0  0
    6.9646   -6.7145    0.0000 C   0  0  0  0  0  0  0  0  0  0  0  0
    6.8783  -12.4850    0.0000 O   0  0  0  0  0  0  0  0  0  0  0  0
    4.0205  -12.4850    0.0000 O   0  0  0  0  0  0  0  0  0  0  0  0
    6.9646   -9.1805    0.0000 H   0  0  0  0  0  0  0  0  0  0  0  0
  1  2  1  0  0  0  0
  2  3  1  0  0  0  0
  3  4  1  0  0  0  0
  4  5  1  0  0  0  0
  5  6  1  0  0  0  0
  6  1  1  0  0  0  0
  5  7  2  0  0  0  0
  8  9  1  0  0  0  0
  9  6  2  0  0  0  0
  8 10  2  0  0  0  0
 10 11  1  0  0  0  0
 10 12  1  0  0  0  0
 12 13  1  0  0  0  0
 13 14  1  0  0  0  0
 14 15  1  0  0  0  0
 15 11  1  0  0  0  0
 12 16  1  0  0  0  0
 16 17  1  0  0  0  0
 17 18  1  0  0  0  0
 18 13  1  0  0  0  0
 18 19  1  1  0  0  0
 19 20  1  0  0  0  0
 20 21  1  0  0  0  0
 21 22  1  0  0  0  0
 22 23  1  0  0  0  0
 23 24  1  0  0  0  0
 23 25  1  0  0  0  0
 23 26  1  0  0  0  0
 13 27  1  1  0  0  0
  4 28  1  1  0  0  0
  2 29  1  6  0  0  0
 12 30  1  6  0  0  0
M  END
>  <cdx:fragmentId>
5

$$$$
