98905.cdx
  Mrv1902 05222410182D          

 31 34  0  0  0  0            999 V2000
    3.8824   -8.6075    0.0000 C   0  0  0  0  0  0  0  0  0  0  0  0
    3.8824   -9.4325    0.0000 C   0  0  0  0  0  0  0  0  0  0  0  0
    4.5969   -9.8450    0.0000 C   0  0  0  0  0  0  0  0  0  0  0  0
    5.3114   -9.4325    0.0000 C   0  0  0  0  0  0  0  0  0  0  0  0
    5.3114   -8.6075    0.0000 C   0  0  2  0  0  0  0  0  0  0  0  0
    4.5969   -8.1950    0.0000 C   0  0  0  0  0  0  0  0  0  0  0  0
    6.0258   -9.8450    0.0000 C   0  0  0  0  0  0  0  0  0  0  0  0
    6.7403   -9.4325    0.0000 C   0  0  2  0  0  0  0  0  0  0  0  0
    6.7403   -8.6075    0.0000 C   0  0  2  0  0  0  0  0  0  0  0  0
    6.0258   -8.1950    0.0000 C   0  0  2  0  0  0  0  0  0  0  0  0
    7.4548   -8.1950    0.0000 C   0  0  1  0  0  0  0  0  0  0  0  0
    7.4548   -7.3700    0.0000 C   0  0  1  0  0  0  0  0  0  0  0  0
    6.7403   -6.9575    0.0000 C   0  0  0  0  0  0  0  0  0  0  0  0
    6.0258   -7.3700    0.0000 C   0  0  0  0  0  0  0  0  0  0  0  0
    6.7403  -11.0825    0.0000 C   0  0  0  0  0  0  0  0  0  0  0  0
    7.4548  -10.6700    0.0000 C   0  0  0  0  0  0  0  0  0  0  0  0
    7.4548   -9.8450    0.0000 S   0  0  0  0  0  0  0  0  0  0  0  0
    3.1680   -9.8450    0.0000 O   0  0  0  0  0  0  0  0  0  0  0  0
    8.1693  -11.0825    0.0000 O   0  0  0  0  0  0  0  0  0  0  0  0
    7.4548   -6.5450    0.0000 C   0  0  0  0  0  0  0  0  0  0  0  0
    6.7403   -7.7825    0.0000 H   0  0  0  0  0  0  0  0  0  0  0  0
    5.3114   -7.7825    0.0000 C   0  0  0  0  0  0  0  0  0  0  0  0
    6.0258   -9.0200    0.0000 H   0  0  0  0  0  0  0  0  0  0  0  0
    7.4548   -9.0200    0.0000 H   0  0  0  0  0  0  0  0  0  0  0  0
    8.2394   -8.4499    0.0000 C   0  0  1  0  0  0  0  0  0  0  0  0
    8.7243   -7.7825    0.0000 C   0  0  0  0  0  0  0  0  0  0  0  0
    8.2394   -7.1151    0.0000 C   0  0  2  0  0  0  0  0  0  0  0  0
    8.4943   -9.2346    0.0000 O   0  0  0  0  0  0  0  0  0  0  0  0
    8.4943   -6.3304    0.0000 C   0  0  0  0  0  0  0  0  0  0  0  0
    7.9423   -5.7173    0.0000 O   0  0  0  0  0  0  0  0  0  0  0  0
    9.3013   -6.1589    0.0000 C   0  0  0  0  0  0  0  0  0  0  0  0
  1  2  1  0  0  0  0
  2  3  1  0  0  0  0
  3  4  2  0  0  0  0
  4  5  1  0  0  0  0
  5  6  1  0  0  0  0
  6  1  1  0  0  0  0
  4  7  1  0  0  0  0
  7  8  1  0  0  0  0
  8  9  1  0  0  0  0
  9 10  1  0  0  0  0
 10  5  1  0  0  0  0
  9 11  1  0  0  0  0
 11 12  1  0  0  0  0
 12 13  1  0  0  0  0
 13 14  1  0  0  0  0
 14 10  1  0  0  0  0
 15 16  1  0  0  0  0
 16 17  1  0  0  0  0
  8 17  1  6  0  0  0
  2 18  2  0  0  0  0
 16 19  2  0  0  0  0
 12 20  1  1  0  0  0
  9 21  1  1  0  0  0
  5 22  1  1  0  0  0
 10 23  1  6  0  0  0
 11 24  1  6  0  0  0
 11 25  1  0  0  0  0
 25 26  1  0  0  0  0
 26 27  1  0  0  0  0
 27 12  1  0  0  0  0
 25 28  1  1  0  0  0
 27 29  1  1  0  0  0
 29 30  2  0  0  0  0
 29 31  1  0  0  0  0
M  END
>  <cdx:fragmentId>
5

$$$$
