98909.cdx
  Mrv1902 05222410282D          

 30 31  0  0  0  0            999 V2000
   11.1275  -10.1500    0.0000 C   0  0  0  0  0  0  0  0  0  0  0  0
   11.1232   -9.3252    0.0000 C   0  0  0  0  0  0  0  0  0  0  0  0
   10.4068   -8.9166    0.0000 C   0  0  0  0  0  0  0  0  0  0  0  0
   10.3894   -8.2024    0.0000 C   0  0  0  0  0  0  0  0  0  0  0  0
    9.6524   -7.7491    0.0000 C   0  0  0  0  0  0  0  0  0  0  0  0
    8.9381   -8.1614    0.0000 C   0  0  0  0  0  0  0  0  0  0  0  0
    8.2239   -7.7491    0.0000 C   0  0  0  0  0  0  0  0  0  0  0  0
    7.5097   -8.1614    0.0000 C   0  0  0  0  0  0  0  0  0  0  0  0
    6.7954   -7.7491    0.0000 C   0  0  0  0  0  0  0  0  0  0  0  0
    6.0812   -8.1614    0.0000 C   0  0  0  0  0  0  0  0  0  0  0  0
    5.3669   -7.7491    0.0000 C   0  0  0  0  0  0  0  0  0  0  0  0
    4.6527   -8.1614    0.0000 C   0  0  0  0  0  0  0  0  0  0  0  0
    3.9384   -7.7491    0.0000 C   0  0  0  0  0  0  0  0  0  0  0  0
    3.2242   -8.1614    0.0000 C   0  0  0  0  0  0  0  0  0  0  0  0
   13.2723  -10.5512    0.0000 C   0  0  0  0  0  0  0  0  0  0  0  0
   13.2766  -11.3759    0.0000 C   0  0  0  0  0  0  0  0  0  0  0  0
   12.5645  -11.7920    0.0000 C   0  0  0  0  0  0  0  0  0  0  0  0
   11.8482  -11.3833    0.0000 C   0  0  0  0  0  0  0  0  0  0  0  0
   11.8439  -10.5586    0.0000 C   0  0  0  0  0  0  0  0  0  0  0  0
   12.5560  -10.1425    0.0000 C   0  0  0  0  0  0  0  0  0  0  0  0
   13.9844  -10.1351    0.0000 O   0  0  0  0  0  0  0  0  0  0  0  0
   12.5688  -12.6167    0.0000 O   0  0  0  0  0  0  0  0  0  0  0  0
    1.0814   -7.7491    0.0000 C   0  0  0  0  0  0  0  0  0  0  0  0
    1.0814   -6.9243    0.0000 C   0  0  0  0  0  0  0  0  0  0  0  0
    1.7957   -6.5120    0.0000 C   0  0  0  0  0  0  0  0  0  0  0  0
    2.5099   -6.9243    0.0000 C   0  0  0  0  0  0  0  0  0  0  0  0
    2.5099   -7.7491    0.0000 C   0  0  0  0  0  0  0  0  0  0  0  0
    1.7957   -8.1614    0.0000 C   0  0  0  0  0  0  0  0  0  0  0  0
    0.3672   -8.1614    0.0000 O   0  0  0  0  0  0  0  0  0  0  0  0
    1.7957   -5.6872    0.0000 O   0  0  0  0  0  0  0  0  0  0  0  0
  1  2  1  0  0  0  0
  2  3  1  0  0  0  0
  3  4  1  0  0  0  0
  4  5  2  0  0  0  0
  5  6  1  0  0  0  0
  6  7  1  0  0  0  0
  7  8  1  0  0  0  0
  8  9  1  0  0  0  0
  9 10  1  0  0  0  0
 10 11  1  0  0  0  0
 11 12  1  0  0  0  0
 12 13  1  0  0  0  0
 13 14  1  0  0  0  0
 15 16  1  0  0  0  0
 16 17  2  0  0  0  0
 17 18  1  0  0  0  0
 18 19  2  0  0  0  0
 19 20  1  0  0  0  0
 15 20  2  0  0  0  0
 15 21  1  0  0  0  0
 17 22  1  0  0  0  0
  1 19  1  0  0  0  0
 23 24  1  0  0  0  0
 24 25  2  0  0  0  0
 25 26  1  0  0  0  0
 26 27  2  0  0  0  0
 27 28  1  0  0  0  0
 23 28  2  0  0  0  0
 23 29  1  0  0  0  0
 25 30  1  0  0  0  0
 14 27  1  0  0  0  0
M  END
>  <cdx:fragmentId>
5

$$$$
