98903.cdx
  Mrv1902 05222410192D          

 28 32  0  0  0  0            999 V2000
    6.9398   -4.1609    0.0000 C   0  0  0  0  0  0  0  0  0  0  0  0
    7.6510   -3.7428    0.0000 C   0  0  0  0  0  0  0  0  0  0  0  0
    8.3687   -4.1497    0.0000 C   0  0  0  0  0  0  0  0  0  0  0  0
    8.3751   -4.9747    0.0000 C   0  0  0  0  0  0  0  0  0  0  0  0
    7.6639   -5.3928    0.0000 C   0  0  0  0  0  0  0  0  0  0  0  0
    7.6703   -6.2177    0.0000 N   0  3  0  0  0  0  0  0  0  0  0  0
    6.9591   -6.6358    0.0000 C   0  0  0  0  0  0  0  0  0  0  0  0
    6.2414   -6.2289    0.0000 C   0  0  0  0  0  0  0  0  0  0  0  0
    5.5302   -6.6469    0.0000 C   0  0  0  0  0  0  0  0  0  0  0  0
    4.8125   -6.2400    0.0000 C   0  0  0  0  0  0  0  0  0  0  0  0
    4.8061   -5.4150    0.0000 C   0  0  0  0  0  0  0  0  0  0  0  0
    5.5173   -4.9970    0.0000 C   0  0  0  0  0  0  0  0  0  0  0  0
    6.2350   -5.4039    0.0000 C   0  0  0  0  0  0  0  0  0  0  0  0
    6.9462   -4.9858    0.0000 C   0  0  0  0  0  0  0  0  0  0  0  0
   10.5906   -5.2124    0.0000 O   0  0  0  0  0  0  0  0  0  0  0  0
   11.0703   -4.5412    0.0000 C   0  0  0  0  0  0  0  0  0  0  0  0
   10.5802   -3.8775    0.0000 O   0  0  0  0  0  0  0  0  0  0  0  0
    9.7976   -4.1386    0.0000 C   0  0  0  0  0  0  0  0  0  0  0  0
    9.8040   -4.9635    0.0000 C   0  0  0  0  0  0  0  0  0  0  0  0
    9.0799   -3.7317    0.0000 C   0  0  0  0  0  0  0  0  0  0  0  0
    9.0928   -5.3816    0.0000 C   0  0  0  0  0  0  0  0  0  0  0  0
    8.3880   -6.6246    0.0000 C   0  0  0  0  0  0  0  0  0  0  0  0
    4.1013   -6.6581    0.0000 O   0  0  0  0  0  0  0  0  0  0  0  0
    3.3836   -6.2512    0.0000 C   0  0  0  0  0  0  0  0  0  0  0  0
    5.5366   -7.4719    0.0000 O   0  0  0  0  0  0  0  0  0  0  0  0
    4.8254   -7.8900    0.0000 C   0  0  0  0  0  0  0  0  0  0  0  0
    6.9655   -7.4608    0.0000 O   0  0  0  0  0  0  0  0  0  0  0  0
    5.5109   -4.1720    0.0000 O   0  0  0  0  0  0  0  0  0  0  0  0
  1  2  2  0  0  0  0
  2  3  1  0  0  0  0
  3  4  2  0  0  0  0
  4  5  1  0  0  0  0
  5  6  1  0  0  0  0
  6  7  2  0  0  0  0
  7  8  1  0  0  0  0
  8  9  2  0  0  0  0
  9 10  1  0  0  0  0
 10 11  2  0  0  0  0
 11 12  1  0  0  0  0
 12 13  2  0  0  0  0
  8 13  1  0  0  0  0
 13 14  1  0  0  0  0
  5 14  2  0  0  0  0
  1 14  1  0  0  0  0
 15 16  1  0  0  0  0
 16 17  1  0  0  0  0
 17 18  1  0  0  0  0
 18 19  1  0  0  0  0
 15 19  1  0  0  0  0
 21 19  2  0  0  0  0
 20 18  2  0  0  0  0
 20  3  1  0  0  0  0
 21  4  1  0  0  0  0
  6 22  1  0  0  0  0
 23 24  1  0  0  0  0
 10 23  1  0  0  0  0
 25 26  1  0  0  0  0
  9 25  1  0  0  0  0
  7 27  1  0  0  0  0
 12 28  1  0  0  0  0
M  CHG  1   6   1
M  END
>  <cdx:fragmentId>
5

$$$$
