98901.cdx
  Mrv1902 05222410202D          

 27 28  0  0  0  0            999 V2000
    9.0894   -5.2236    0.0000 C   0  0  0  0  0  0  0  0  0  0  0  0
    8.3775   -4.8068    0.0000 C   0  0  0  0  0  0  0  0  0  0  0  0
    7.6605   -5.2150    0.0000 C   0  0  1  0  0  0  0  0  0  0  0  0
    9.8064   -4.8154    0.0000 C   0  0  0  0  0  0  0  0  0  0  0  0
    9.8114   -3.9905    0.0000 C   0  0  0  0  0  0  0  0  0  0  0  0
    9.0994   -3.5737    0.0000 C   0  0  0  0  0  0  0  0  0  0  0  0
    7.6257  -10.9899    0.0000 C   0  0  0  0  0  0  0  0  0  0  0  0
    8.3377  -11.4067    0.0000 O   0  0  0  0  0  0  0  0  0  0  0  0
    6.9187   -9.7481    0.0000 C   0  0  0  0  0  0  0  0  0  0  0  0
    7.6307  -10.1649    0.0000 C   0  0  0  0  0  0  0  0  0  0  0  0
    4.7902   -7.6770    0.0000 C   0  0  0  0  0  0  0  0  0  0  0  0
    5.5047   -7.2645    0.0000 O   0  0  0  0  0  0  0  0  0  0  0  0
    6.2167   -7.6813    0.0000 C   0  0  0  0  0  0  0  0  0  0  0  0
    6.2117   -8.5063    0.0000 C   0  0  0  0  0  0  0  0  0  0  0  0
    6.9237   -8.9231    0.0000 C   0  0  0  0  0  0  0  0  0  0  0  0
    7.6406   -8.5149    0.0000 C   0  0  0  0  0  0  0  0  0  0  0  0
    6.9336   -7.2732    0.0000 C   0  0  0  0  0  0  0  0  0  0  0  0
    7.6456   -7.6900    0.0000 C   0  0  0  0  0  0  0  0  0  0  0  0
    9.0820   -6.0443    0.0000 O   0  0  0  0  0  0  0  0  0  0  0  0
    8.3675   -6.4568    0.0000 C   0  0  0  0  0  0  0  0  0  0  0  0
    8.3824   -3.9818    0.0000 C   0  0  0  0  0  0  0  0  0  0  0  0
   10.5283   -3.5823    0.0000 O   0  0  0  0  0  0  0  0  0  0  0  0
    9.1044   -2.7487    0.0000 O   0  0  0  0  0  0  0  0  0  0  0  0
    9.8213   -2.3405    0.0000 C   0  0  0  0  0  0  0  0  0  0  0  0
    6.9386   -6.4482    0.0000 O   0  0  0  0  0  0  0  0  0  0  0  0
    7.6555   -6.0400    0.0000 C   0  0  2  0  0  0  0  0  0  0  0  0
    6.9486   -4.7982    0.0000 O   0  0  0  0  0  0  0  0  0  0  0  0
  1  2  2  0  0  0  0
  2  3  1  0  0  0  0
 10  7  1  0  0  0  0
  7  8  2  0  0  0  0
  9 15  1  0  0  0  0
 10  9  2  0  0  0  0
 12 11  1  0  0  0  0
 13 12  1  0  0  0  0
 13 17  1  0  0  0  0
 14 13  2  0  0  0  0
 15 14  1  0  0  0  0
 16 15  2  0  0  0  0
 16 18  1  0  0  0  0
 17 25  1  0  0  0  0
 18 17  2  0  0  0  0
 20 19  1  0  0  0  0
 26 20  1  0  0  0  0
  1  4  1  0  0  0  0
  4  5  2  0  0  0  0
  5  6  1  0  0  0  0
  6 21  2  0  0  0  0
 21  2  1  0  0  0  0
  5 22  1  0  0  0  0
 26 25  1  6  0  0  0
  3 26  1  0  0  0  0
  6 23  1  0  0  0  0
 23 24  1  0  0  0  0
  3 27  1  1  0  0  0
M  END
>  <cdx:fragmentId>
5

$$$$
