98904.cdx
  Mrv1902 05222410182D          

 32 35  0  0  0  0            999 V2000
    3.9372  -10.7657    0.0000 C   0  0  0  0  0  0  0  0  0  0  0  0
    3.9372   -9.9407    0.0000 C   0  0  0  0  0  0  0  0  0  0  0  0
    4.6516   -9.5282    0.0000 C   0  0  0  0  0  0  0  0  0  0  0  0
    4.6516  -11.1782    0.0000 C   0  0  0  0  0  0  0  0  0  0  0  0
    5.3661  -10.7657    0.0000 C   0  0  0  0  0  0  0  0  0  0  0  0
    6.0806  -11.1782    0.0000 C   0  0  0  0  0  0  0  0  0  0  0  0
    6.7951  -10.7657    0.0000 C   0  0  0  0  0  0  0  0  0  0  0  0
    6.7951   -9.9407    0.0000 C   0  0  1  0  0  0  0  0  0  0  0  0
    7.5095   -9.5282    0.0000 C   0  0  2  0  0  0  0  0  0  0  0  0
    8.2941   -9.7831    0.0000 C   0  0  0  0  0  0  0  0  0  0  0  0
    8.7791   -9.1157    0.0000 C   0  0  0  0  0  0  0  0  0  0  0  0
    8.2941   -8.4482    0.0000 C   0  0  2  0  0  0  0  0  0  0  0  0
    8.5491   -7.6636    0.0000 C   0  0  1  0  0  0  0  0  0  0  0  0
    9.3561   -7.4921    0.0000 C   0  0  0  0  0  0  0  0  0  0  0  0
    9.6110   -6.7074    0.0000 C   0  0  0  0  0  0  0  0  0  0  0  0
    7.9971   -7.0505    0.0000 C   0  0  0  0  0  0  0  0  0  0  0  0
    7.5095   -8.7032    0.0000 C   0  0  2  0  0  0  0  0  0  0  0  0
    7.5095   -7.8782    0.0000 C   0  0  0  0  0  0  0  0  0  0  0  0
    6.7951   -8.2907    0.0000 C   0  0  2  0  0  0  0  0  0  0  0  0
    6.0806   -8.7032    0.0000 C   0  0  0  0  0  0  0  0  0  0  0  0
    6.0806   -9.5282    0.0000 C   0  0  2  0  0  0  0  0  0  0  0  0
    5.3661   -9.9407    0.0000 C   0  0  1  0  0  0  0  0  0  0  0  0
    5.3661   -9.1157    0.0000 C   0  0  0  0  0  0  0  0  0  0  0  0
   10.6729   -5.7513    0.0000 O   0  0  0  0  0  0  0  0  0  0  0  0
    3.2227  -11.1782    0.0000 O   0  0  0  0  0  0  0  0  0  0  0  0
    6.7951   -7.4657    0.0000 O   0  0  0  0  0  0  0  0  0  0  0  0
    6.0806  -10.3532    0.0000 H   0  0  0  0  0  0  0  0  0  0  0  0
    6.7951   -9.1157    0.0000 H   0  0  0  0  0  0  0  0  0  0  0  0
    7.5095  -10.3532    0.0000 H   0  0  0  0  0  0  0  0  0  0  0  0
   10.9700   -7.1490    0.0000 O   0  0  0  0  0  0  0  0  0  0  0  0
   10.4180   -6.5359    0.0000 C   0  0  0  0  0  0  0  0  0  0  0  0
    9.0910   -8.2347    0.0000 H   0  0  0  0  0  0  0  0  0  0  0  0
 31 24  1  0  0  0  0
 31 30  2  0  0  0  0
  1  2  1  0  0  0  0
  2  3  2  0  0  0  0
  1  4  1  0  0  0  0
  4  5  2  0  0  0  0
  5  6  1  0  0  0  0
  6  7  2  0  0  0  0
  7  8  1  0  0  0  0
  8  9  1  0  0  0  0
  9 10  1  0  0  0  0
 10 11  1  0  0  0  0
 12 11  1  0  0  0  0
 12 13  1  0  0  0  0
 13 14  1  0  0  0  0
 14 15  1  0  0  0  0
 15 31  1  0  0  0  0
 13 16  1  6  0  0  0
 12 17  1  0  0  0  0
  9 17  1  0  0  0  0
 17 18  1  1  0  0  0
 17 19  1  0  0  0  0
 19 20  1  0  0  0  0
 20 21  1  0  0  0  0
  8 21  1  0  0  0  0
 21 22  1  0  0  0  0
  3 22  1  0  0  0  0
  5 22  1  0  0  0  0
 22 23  1  1  0  0  0
  1 25  2  0  0  0  0
 19 26  1  6  0  0  0
 21 27  1  6  0  0  0
  8 28  1  1  0  0  0
  9 29  1  6  0  0  0
 12 32  1  6  0  0  0
M  END
>  <cdx:fragmentId>
5

$$$$
