98914.cdx
  Mrv1902 05222410202D          

 20 21  0  0  0  0            999 V2000
    4.4012   -5.7827    0.0000 O   0  0  0  0  0  0  0  0  0  0  0  0
    4.4012   -2.4827    0.0000 O   0  0  0  0  0  0  0  0  0  0  0  0
    9.4025   -4.5452    0.0000 C   0  0  0  0  0  0  0  0  0  0  0  0
   10.1169   -3.3077    0.0000 C   0  0  0  0  0  0  0  0  0  0  0  0
    9.4025   -3.7202    0.0000 C   0  0  0  0  0  0  0  0  0  0  0  0
    8.6880   -3.3077    0.0000 C   0  0  0  0  0  0  0  0  0  0  0  0
    7.9735   -3.7202    0.0000 C   0  0  0  0  0  0  0  0  0  0  0  0
    7.2590   -3.3077    0.0000 C   0  0  0  0  0  0  0  0  0  0  0  0
    5.8301   -5.7827    0.0000 O   0  0  0  0  0  0  0  0  0  0  0  0
    5.8301   -2.4827    0.0000 O   0  0  0  0  0  0  0  0  0  0  0  0
    5.1156   -3.7202    0.0000 C   0  0  0  0  0  0  0  0  0  0  0  0
    4.4012   -3.3077    0.0000 C   0  0  0  0  0  0  0  0  0  0  0  0
    3.6867   -3.7202    0.0000 C   0  0  0  0  0  0  0  0  0  0  0  0
    3.6867   -4.5452    0.0000 C   0  0  0  0  0  0  0  0  0  0  0  0
    4.4012   -4.9577    0.0000 C   0  0  0  0  0  0  0  0  0  0  0  0
    5.1156   -4.5452    0.0000 C   0  0  0  0  0  0  0  0  0  0  0  0
    5.8301   -4.9577    0.0000 C   0  0  0  0  0  0  0  0  0  0  0  0
    6.5446   -4.5452    0.0000 C   0  0  0  0  0  0  0  0  0  0  0  0
    6.5446   -3.7202    0.0000 C   0  0  0  0  0  0  0  0  0  0  0  0
    5.8301   -3.3077    0.0000 C   0  0  0  0  0  0  0  0  0  0  0  0
 15  1  1  0  0  0  0
 12  2  1  0  0  0  0
 19  8  1  0  0  0  0
  5  3  1  0  0  0  0
  5  4  1  0  0  0  0
  6  5  2  0  0  0  0
  7  6  1  0  0  0  0
  8  7  1  0  0  0  0
 17  9  2  0  0  0  0
 20 10  2  0  0  0  0
 16 11  2  0  0  0  0
 20 11  1  0  0  0  0
 12 11  1  0  0  0  0
 13 12  2  0  0  0  0
 14 13  1  0  0  0  0
 15 14  2  0  0  0  0
 16 15  1  0  0  0  0
 17 16  1  0  0  0  0
 18 17  1  0  0  0  0
 19 18  2  0  0  0  0
 20 19  1  0  0  0  0
M  END
>  <cdx:fragmentId>
5

$$$$
