98911.cdx
  Mrv1902 05222410182D          

 16 15  0  0  0  0            999 V2000
    3.4281   -7.6313    0.0000 Si  0  0  0  0  0  0  0  0  0  0  0  0
    4.1426   -7.2188    0.0000 O   0  0  0  0  0  0  0  0  0  0  0  0
    4.8571   -7.6313    0.0000 C   0  0  0  0  0  0  0  0  0  0  0  0
    5.5716   -7.2188    0.0000 C   0  0  0  0  0  0  0  0  0  0  0  0
    6.2860   -7.6313    0.0000 C   0  0  0  0  0  0  0  0  0  0  0  0
    7.0005   -7.2188    0.0000 C   0  0  0  0  0  0  0  0  0  0  0  0
    7.7150   -7.6313    0.0000 C   0  0  0  0  0  0  0  0  0  0  0  0
    8.4294   -7.2188    0.0000 C   0  0  0  0  0  0  0  0  0  0  0  0
    9.1439   -7.6313    0.0000 C   0  0  0  0  0  0  0  0  0  0  0  0
    9.8584   -7.2188    0.0000 C   0  0  0  0  0  0  0  0  0  0  0  0
   10.5729   -7.6313    0.0000 C   0  0  0  0  0  0  0  0  0  0  0  0
   11.2873   -7.2188    0.0000 C   0  0  0  0  0  0  0  0  0  0  0  0
    4.8571   -8.4563    0.0000 O   0  0  0  0  0  0  0  0  0  0  0  0
    2.7137   -8.0437    0.0000 C   0  0  0  0  0  0  0  0  0  0  0  0
    3.0156   -6.9168    0.0000 C   0  0  0  0  0  0  0  0  0  0  0  0
    3.8406   -8.3457    0.0000 C   0  0  0  0  0  0  0  0  0  0  0  0
  1  2  1  0  0  0  0
  2  3  1  0  0  0  0
  3  4  1  0  0  0  0
  4  5  1  0  0  0  0
  5  6  1  0  0  0  0
  6  7  1  0  0  0  0
  7  8  1  0  0  0  0
  8  9  1  0  0  0  0
  9 10  1  0  0  0  0
 10 11  1  0  0  0  0
 11 12  1  0  0  0  0
  3 13  2  0  0  0  0
  1 14  1  0  0  0  0
  1 15  1  0  0  0  0
  1 16  1  0  0  0  0
M  END
>  <cdx:fragmentId>
3

$$$$
