98913.cdx
  Mrv1902 05222410192D          

 35 39  0  0  0  0            999 V2000
    3.8346  -10.1062    0.0000 C   0  0  0  0  0  0  0  0  0  0  0  0
    3.8346   -9.2812    0.0000 C   0  0  0  0  0  0  0  0  0  0  0  0
    4.5491   -8.8687    0.0000 C   0  0  0  0  0  0  0  0  0  0  0  0
    4.5491  -10.5187    0.0000 C   0  0  0  0  0  0  0  0  0  0  0  0
    4.9616  -11.2332    0.0000 C   0  0  0  0  0  0  0  0  0  0  0  0
    4.1366  -11.2332    0.0000 C   0  0  0  0  0  0  0  0  0  0  0  0
    5.2636  -10.1062    0.0000 C   0  0  2  0  0  0  0  0  0  0  0  0
    5.2636  -10.9312    0.0000 H   0  0  0  0  0  0  0  0  0  0  0  0
    5.9780  -10.5187    0.0000 C   0  0  0  0  0  0  0  0  0  0  0  0
    6.6925  -10.1062    0.0000 C   0  0  0  0  0  0  0  0  0  0  0  0
    6.6925   -9.2812    0.0000 C   0  0  1  0  0  0  0  0  0  0  0  0
    6.6925   -8.4562    0.0000 C   0  0  0  0  0  0  0  0  0  0  0  0
    7.4070   -8.8688    0.0000 C   0  0  2  0  0  0  0  0  0  0  0  0
    7.4070   -9.6937    0.0000 C   0  0  0  0  0  0  0  0  0  0  0  0
    8.1215   -9.2813    0.0000 C   0  0  0  0  0  0  0  0  0  0  0  0
    8.8359   -8.8688    0.0000 C   0  0  0  0  0  0  0  0  0  0  0  0
    8.8359   -8.0437    0.0000 C   0  0  1  0  0  0  0  0  0  0  0  0
    9.5504   -8.4563    0.0000 C   0  0  0  0  0  0  0  0  0  0  0  0
    9.5504   -7.6313    0.0000 C   0  0  0  0  0  0  0  0  0  0  0  0
    9.5504   -6.8062    0.0000 C   0  0  0  0  0  0  0  0  0  0  0  0
    8.8359   -6.3937    0.0000 C   0  0  0  0  0  0  0  0  0  0  0  0
    8.4234   -5.6793    0.0000 C   0  0  0  0  0  0  0  0  0  0  0  0
    9.2484   -5.6793    0.0000 C   0  0  0  0  0  0  0  0  0  0  0  0
    8.1215   -6.8062    0.0000 C   0  0  0  0  0  0  0  0  0  0  0  0
    8.1215   -7.6313    0.0000 C   0  0  1  0  0  0  0  0  0  0  0  0
    8.1215   -8.4563    0.0000 H   0  0  0  0  0  0  0  0  0  0  0  0
    7.4070   -8.0437    0.0000 C   0  0  0  0  0  0  0  0  0  0  0  0
    6.6925   -7.6312    0.0000 C   0  0  0  0  0  0  0  0  0  0  0  0
    5.9780   -8.0437    0.0000 C   0  0  0  0  0  0  0  0  0  0  0  0
    5.9780   -8.8687    0.0000 C   0  0  2  0  0  0  0  0  0  0  0  0
    5.2636   -9.2812    0.0000 C   0  0  1  0  0  0  0  0  0  0  0  0
    5.2636   -8.4562    0.0000 C   0  0  0  0  0  0  0  0  0  0  0  0
    9.5504   -9.2813    0.0000 O   0  0  0  0  0  0  0  0  0  0  0  0
   10.2649   -8.0437    0.0000 O   0  0  0  0  0  0  0  0  0  0  0  0
    5.9780   -9.6937    0.0000 H   0  0  0  0  0  0  0  0  0  0  0  0
  1  2  1  0  0  0  0
  2  3  1  0  0  0  0
  1  4  1  0  0  0  0
  4  5  1  0  0  0  0
  4  6  1  0  0  0  0
  4  7  1  0  0  0  0
  7  8  1  6  0  0  0
  7  9  1  0  0  0  0
  9 10  1  0  0  0  0
 10 11  1  0  0  0  0
 11 12  1  1  0  0  0
 11 13  1  0  0  0  0
 13 14  1  6  0  0  0
 13 15  1  0  0  0  0
 15 16  1  0  0  0  0
 16 17  1  0  0  0  0
 17 18  1  1  0  0  0
 17 19  1  0  0  0  0
 19 20  1  0  0  0  0
 20 21  1  0  0  0  0
 21 22  1  0  0  0  0
 21 23  1  0  0  0  0
 21 24  1  0  0  0  0
 24 25  1  0  0  0  0
 25 26  1  1  0  0  0
 17 25  1  0  0  0  0
 25 27  1  0  0  0  0
 13 27  1  0  0  0  0
 27 28  2  0  0  0  0
 28 29  1  0  0  0  0
 29 30  1  0  0  0  0
 11 30  1  0  0  0  0
 30 31  1  0  0  0  0
  3 31  1  0  0  0  0
  7 31  1  0  0  0  0
 31 32  1  1  0  0  0
 18 33  2  0  0  0  0
 18 34  1  0  0  0  0
 30 35  1  6  0  0  0
M  END
>  <cdx:fragmentId>
5

$$$$
