98910.cdx
  Mrv1902 05222410182D          

 28 31  0  0  0  0            999 V2000
    4.8955   -9.7049    0.0000 C   0  0  0  0  0  0  0  0  0  0  0  0
    4.8955   -8.8799    0.0000 C   0  0  0  0  0  0  0  0  0  0  0  0
    5.6100   -8.4674    0.0000 C   0  0  0  0  0  0  0  0  0  0  0  0
    5.6100  -10.1174    0.0000 C   0  0  0  0  0  0  0  0  0  0  0  0
    6.3244   -9.7049    0.0000 C   0  0  0  0  0  0  0  0  0  0  0  0
    7.0389  -10.1174    0.0000 C   0  0  2  0  0  0  0  0  0  0  0  0
    7.7534   -9.7049    0.0000 C   0  0  0  0  0  0  0  0  0  0  0  0
    7.7534   -8.8799    0.0000 C   0  0  1  0  0  0  0  0  0  0  0  0
    8.4678   -8.4674    0.0000 C   0  0  2  0  0  0  0  0  0  0  0  0
    9.2525   -8.7224    0.0000 C   0  0  0  0  0  0  0  0  0  0  0  0
    9.7374   -8.0549    0.0000 C   0  0  0  0  0  0  0  0  0  0  0  0
    9.2525   -7.3875    0.0000 C   0  0  2  0  0  0  0  0  0  0  0  0
    9.5074   -6.6029    0.0000 C   0  0  0  0  0  0  0  0  0  0  0  0
   10.3144   -6.4313    0.0000 C   0  0  0  0  0  0  0  0  0  0  0  0
    8.4678   -7.6424    0.0000 C   0  0  2  0  0  0  0  0  0  0  0  0
    8.4678   -6.8174    0.0000 C   0  0  0  0  0  0  0  0  0  0  0  0
    7.7534   -7.2299    0.0000 C   0  0  0  0  0  0  0  0  0  0  0  0
    7.0389   -7.6424    0.0000 C   0  0  1  0  0  0  0  0  0  0  0  0
    7.0389   -8.4674    0.0000 C   0  0  2  0  0  0  0  0  0  0  0  0
    6.3244   -8.8799    0.0000 C   0  0  1  0  0  0  0  0  0  0  0  0
    6.3244   -8.0549    0.0000 C   0  0  0  0  0  0  0  0  0  0  0  0
    4.1810  -10.1174    0.0000 O   0  0  0  0  0  0  0  0  0  0  0  0
    8.9554   -5.9898    0.0000 O   0  0  0  0  0  0  0  0  0  0  0  0
    6.3244   -7.2299    0.0000 O   0  0  0  0  0  0  0  0  0  0  0  0
    7.0389   -9.2924    0.0000 F   0  0  0  0  0  0  0  0  0  0  0  0
    7.0389  -10.9424    0.0000 F   0  0  0  0  0  0  0  0  0  0  0  0
    7.7534   -8.0549    0.0000 H   0  0  0  0  0  0  0  0  0  0  0  0
    8.4678   -9.2924    0.0000 H   0  0  0  0  0  0  0  0  0  0  0  0
  1  2  1  0  0  0  0
  2  3  1  0  0  0  0
  1  4  1  0  0  0  0
  4  5  2  0  0  0  0
  5  6  1  0  0  0  0
  6  7  1  0  0  0  0
  7  8  1  0  0  0  0
  8  9  1  0  0  0  0
  9 10  1  0  0  0  0
 10 11  1  0  0  0  0
 11 12  1  0  0  0  0
 12 13  1  1  0  0  0
 13 14  1  0  0  0  0
 12 15  1  0  0  0  0
  9 15  1  0  0  0  0
 15 16  1  1  0  0  0
 15 17  1  0  0  0  0
 17 18  1  0  0  0  0
 18 19  1  0  0  0  0
  8 19  1  0  0  0  0
 19 20  1  0  0  0  0
  3 20  1  0  0  0  0
  5 20  1  0  0  0  0
 20 21  1  1  0  0  0
  1 22  2  0  0  0  0
 13 23  2  0  0  0  0
 18 24  1  1  0  0  0
 19 25  1  6  0  0  0
  6 26  1  6  0  0  0
  8 27  1  1  0  0  0
  9 28  1  6  0  0  0
M  END
>  <cdx:fragmentId>
5

$$$$
