98915.cdx
  Mrv1902 05222410202D          

 25 24  0  0  0  0            999 V2000
    1.8056   -8.0987    0.0000 Si  0  0  0  0  0  0  0  0  0  0  0  0
    2.5201   -7.6863    0.0000 O   0  0  0  0  0  0  0  0  0  0  0  0
    3.2346   -8.0987    0.0000 C   0  0  0  0  0  0  0  0  0  0  0  0
    3.9491   -7.6863    0.0000 C   0  0  0  0  0  0  0  0  0  0  0  0
    4.6635   -8.0987    0.0000 C   0  0  0  0  0  0  0  0  0  0  0  0
    5.3780   -7.6863    0.0000 C   0  0  0  0  0  0  0  0  0  0  0  0
    6.0925   -8.0987    0.0000 C   0  0  0  0  0  0  0  0  0  0  0  0
    6.8069   -7.6863    0.0000 C   0  0  0  0  0  0  0  0  0  0  0  0
    7.5214   -8.0987    0.0000 C   0  0  0  0  0  0  0  0  0  0  0  0
    8.2359   -7.6863    0.0000 C   0  0  0  0  0  0  0  0  0  0  0  0
    8.9504   -8.0987    0.0000 C   0  0  0  0  0  0  0  0  0  0  0  0
    9.6648   -7.6863    0.0000 C   0  0  0  0  0  0  0  0  0  0  0  0
   10.3793   -8.0987    0.0000 C   0  0  0  0  0  0  0  0  0  0  0  0
   11.0938   -7.6863    0.0000 C   0  0  0  0  0  0  0  0  0  0  0  0
   11.8082   -8.0987    0.0000 C   0  0  0  0  0  0  0  0  0  0  0  0
   12.5227   -7.6863    0.0000 C   0  0  0  0  0  0  0  0  0  0  0  0
   13.2372   -8.0987    0.0000 C   0  0  0  0  0  0  0  0  0  0  0  0
   13.9517   -7.6863    0.0000 C   0  0  0  0  0  0  0  0  0  0  0  0
    4.6635   -8.9238    0.0000 C   0  0  0  0  0  0  0  0  0  0  0  0
    7.5214   -8.9238    0.0000 C   0  0  0  0  0  0  0  0  0  0  0  0
   10.3793   -8.9238    0.0000 C   0  0  0  0  0  0  0  0  0  0  0  0
   13.2372   -8.9238    0.0000 C   0  0  0  0  0  0  0  0  0  0  0  0
    1.0912   -8.5113    0.0000 C   0  0  0  0  0  0  0  0  0  0  0  0
    1.3931   -7.3843    0.0000 C   0  0  0  0  0  0  0  0  0  0  0  0
    2.2181   -8.8132    0.0000 C   0  0  0  0  0  0  0  0  0  0  0  0
  1  2  1  0  0  0  0
  2  3  1  0  0  0  0
  3  4  1  0  0  0  0
  4  5  2  0  0  0  0
  5  6  1  0  0  0  0
  6  7  1  0  0  0  0
  7  8  1  0  0  0  0
  8  9  1  0  0  0  0
  9 10  1  0  0  0  0
 10 11  1  0  0  0  0
 11 12  1  0  0  0  0
 12 13  1  0  0  0  0
 13 14  1  0  0  0  0
 14 15  1  0  0  0  0
 15 16  1  0  0  0  0
 16 17  1  0  0  0  0
 17 18  1  0  0  0  0
  5 19  1  0  0  0  0
  9 20  1  0  0  0  0
 13 21  1  0  0  0  0
 17 22  1  0  0  0  0
  1 23  1  0  0  0  0
  1 24  1  0  0  0  0
  1 25  1  0  0  0  0
M  END
>  <cdx:fragmentId>
3

$$$$
