98912.cdx
  Mrv1902 05222410182D          

 17 20  0  0  0  0            999 V2000
    6.2124   -5.8103    0.0000 C   0  0  0  0  0  0  0  0  0  0  0  0
    5.4067   -5.6328    0.0000 C   0  0  0  0  0  0  0  0  0  0  0  0
    4.8501   -6.2418    0.0000 C   0  0  0  0  0  0  0  0  0  0  0  0
    5.0992   -7.0283    0.0000 C   0  0  0  0  0  0  0  0  0  0  0  0
    5.9049   -7.2058    0.0000 C   0  0  0  0  0  0  0  0  0  0  0  0
    6.4615   -6.5968    0.0000 C   0  0  0  0  0  0  0  0  0  0  0  0
    6.8834   -5.3303    0.0000 N   0  0  0  0  0  0  0  0  0  0  0  0
    8.6421   -7.0546    0.0000 C   0  0  0  0  0  0  0  0  0  0  0  0
    9.1896   -7.6717    0.0000 C   0  0  0  0  0  0  0  0  0  0  0  0
    9.9978   -7.5062    0.0000 C   0  0  0  0  0  0  0  0  0  0  0  0
   10.2586   -6.7235    0.0000 C   0  0  0  0  0  0  0  0  0  0  0  0
    9.7111   -6.1063    0.0000 C   0  0  0  0  0  0  0  0  0  0  0  0
    8.9029   -6.2718    0.0000 C   0  0  0  0  0  0  0  0  0  0  0  0
    8.3554   -5.6547    0.0000 C   0  0  0  0  0  0  0  0  0  0  0  0
    7.5472   -5.8202    0.0000 C   0  0  0  0  0  0  0  0  0  0  0  0
    7.2864   -6.6029    0.0000 C   0  0  0  0  0  0  0  0  0  0  0  0
    7.8339   -7.2201    0.0000 N   0  0  0  0  0  0  0  0  0  0  0  0
  7 15  1  0  0  0  0
  6 16  1  0  0  0  0
  6  1  2  0  0  0  0
  7  1  1  0  0  0  0
  2  1  1  0  0  0  0
  3  2  2  0  0  0  0
  4  3  1  0  0  0  0
  5  4  2  0  0  0  0
  6  5  1  0  0  0  0
 13  8  1  0  0  0  0
 17  8  1  0  0  0  0
  9  8  2  0  0  0  0
 10  9  1  0  0  0  0
 11 10  2  0  0  0  0
 12 11  1  0  0  0  0
 13 12  2  0  0  0  0
 14 13  1  0  0  0  0
 15 14  2  0  0  0  0
 16 15  1  0  0  0  0
 17 16  2  0  0  0  0
M  END
>  <cdx:fragmentId>
5

$$$$
