98924.cdx
  Mrv1902 05222410262D          

 17 17  0  0  0  0            999 V2000
    5.9174   -7.7000    0.0000 C   0  0  0  0  0  0  0  0  0  0  0  0
    5.9174   -8.5250    0.0000 C   0  0  1  0  0  0  0  0  0  0  0  0
    6.6319   -8.9375    0.0000 C   0  0  2  0  0  0  0  0  0  0  0  0
    7.3464   -8.5250    0.0000 C   0  0  2  0  0  0  0  0  0  0  0  0
    7.3464   -7.7000    0.0000 C   0  0  1  0  0  0  0  0  0  0  0  0
    6.6319   -7.2875    0.0000 C   0  0  2  0  0  0  0  0  0  0  0  0
    5.2030   -8.9375    0.0000 O   0  0  0  0  0  0  0  0  0  0  0  0
    6.2194   -6.5730    0.0000 C   0  0  0  0  0  0  0  0  0  0  0  0
    8.0608   -7.2875    0.0000 C   0  0  0  0  0  0  0  0  0  0  0  0
    8.7753   -7.7000    0.0000 C   0  0  0  0  0  0  0  0  0  0  0  0
    9.4898   -7.2875    0.0000 C   0  0  2  0  0  0  0  0  0  0  0  0
   10.2043   -7.7000    0.0000 C   0  0  0  0  0  0  0  0  0  0  0  0
    9.4898   -6.4625    0.0000 O   0  0  0  0  0  0  0  0  0  0  0  0
    7.0444   -6.5730    0.0000 C   0  0  0  0  0  0  0  0  0  0  0  0
    6.6319   -9.7625    0.0000 O   0  0  0  0  0  0  0  0  0  0  0  0
    8.0608   -8.9375    0.0000 C   0  0  0  0  0  0  0  0  0  0  0  0
    8.0608   -8.1125    0.0000 O   0  0  0  0  0  0  0  0  0  0  0  0
  1  2  1  0  0  0  0
  2  3  1  0  0  0  0
  3  4  1  0  0  0  0
  4  5  1  0  0  0  0
  5  6  1  0  0  0  0
  6  1  1  0  0  0  0
  2  7  1  1  0  0  0
  6  8  1  1  0  0  0
  5  9  1  0  0  0  0
  9 10  2  0  0  0  0
 10 11  1  0  0  0  0
 11 12  1  0  0  0  0
 11 13  1  1  0  0  0
  6 14  1  6  0  0  0
  3 15  1  6  0  0  0
  4 16  1  6  0  0  0
  5 17  1  6  0  0  0
M  END
>  <cdx:fragmentId>
5

$$$$
