98921.cdx
  Mrv1902 05222410282D          

 43 47  0  0  0  0            999 V2000
   14.3949   -6.6114    0.0000 C   0  0  0  0  0  0  0  0  0  0  0  0
   14.3949   -7.4364    0.0000 C   0  0  0  0  0  0  0  0  0  0  0  0
   13.6805   -7.8489    0.0000 C   0  0  0  0  0  0  0  0  0  0  0  0
   13.6805   -8.6739    0.0000 O   0  0  0  0  0  0  0  0  0  0  0  0
   12.9660   -7.4364    0.0000 C   0  0  0  0  0  0  0  0  0  0  0  0
   12.2515   -7.8489    0.0000 C   0  0  0  0  0  0  0  0  0  0  0  0
   12.2515   -8.6739    0.0000 O   0  0  0  0  0  0  0  0  0  0  0  0
   11.5370   -7.4364    0.0000 C   0  0  0  0  0  0  0  0  0  0  0  0
   11.5370   -6.6114    0.0000 C   0  0  0  0  0  0  0  0  0  0  0  0
   10.8226   -6.1989    0.0000 O   0  0  0  0  0  0  0  0  0  0  0  0
   12.2515   -6.1989    0.0000 C   0  0  0  0  0  0  0  0  0  0  0  0
   12.9660   -6.6114    0.0000 C   0  0  0  0  0  0  0  0  0  0  0  0
   13.6805   -6.1989    0.0000 O   0  0  0  0  0  0  0  0  0  0  0  0
   15.1094   -6.1989    0.0000 C   0  0  0  0  0  0  0  0  0  0  0  0
   15.1094   -5.3739    0.0000 C   0  0  0  0  0  0  0  0  0  0  0  0
   15.8239   -4.9614    0.0000 C   0  0  0  0  0  0  0  0  0  0  0  0
   16.5383   -5.3739    0.0000 C   0  0  0  0  0  0  0  0  0  0  0  0
   17.2528   -4.9614    0.0000 O   0  0  0  0  0  0  0  0  0  0  0  0
   16.5383   -6.1989    0.0000 C   0  0  0  0  0  0  0  0  0  0  0  0
   15.8239   -6.6114    0.0000 C   0  0  0  0  0  0  0  0  0  0  0  0
   10.8226   -7.8489    0.0000 C   0  0  1  0  0  0  0  0  0  0  0  0
   10.8226   -8.6739    0.0000 C   0  0  2  0  0  0  0  0  0  0  0  0
   11.5370   -9.0864    0.0000 O   0  0  0  0  0  0  0  0  0  0  0  0
   10.1081   -9.0864    0.0000 C   0  0  1  0  0  0  0  0  0  0  0  0
   10.1081   -9.9114    0.0000 O   0  0  0  0  0  0  0  0  0  0  0  0
    9.3936   -8.6739    0.0000 C   0  0  2  0  0  0  0  0  0  0  0  0
    8.6792   -9.0864    0.0000 O   0  0  0  0  0  0  0  0  0  0  0  0
    9.3936   -7.8489    0.0000 C   0  0  2  0  0  0  0  0  0  0  0  0
   10.1081   -7.4364    0.0000 O   0  0  0  0  0  0  0  0  0  0  0  0
    8.6792   -7.4364    0.0000 C   0  0  0  0  0  0  0  0  0  0  0  0
    7.9647   -7.8489    0.0000 O   0  0  0  0  0  0  0  0  0  0  0  0
   10.8226   -7.0239    0.0000 H   0  0  0  0  0  0  0  0  0  0  0  0
   11.5370   -9.9114    0.0000 C   0  0  2  0  0  0  0  0  0  0  0  0
   10.8226  -10.3239    0.0000 O   0  0  0  0  0  0  0  0  0  0  0  0
   10.8226  -11.1489    0.0000 C   0  0  1  0  0  0  0  0  0  0  0  0
   11.5370  -11.5614    0.0000 C   0  0  2  0  0  0  0  0  0  0  0  0
   12.2515  -11.1489    0.0000 C   0  0  1  0  0  0  0  0  0  0  0  0
   12.2515  -10.3239    0.0000 C   0  0  1  0  0  0  0  0  0  0  0  0
   10.1081  -11.5614    0.0000 C   0  0  0  0  0  0  0  0  0  0  0  0
   12.9660  -11.5614    0.0000 O   0  0  0  0  0  0  0  0  0  0  0  0
   12.9660   -9.9114    0.0000 O   0  0  0  0  0  0  0  0  0  0  0  0
   11.5370  -12.3864    0.0000 O   0  0  0  0  0  0  0  0  0  0  0  0
   10.1081  -12.3864    0.0000 O   0  0  0  0  0  0  0  0  0  0  0  0
  1  2  2  0  0  0  0
  2  3  1  0  0  0  0
  3  4  2  0  0  0  0
  3  5  1  0  0  0  0
  5  6  1  0  0  0  0
  6  7  1  0  0  0  0
  6  8  2  0  0  0  0
  8  9  1  0  0  0  0
  9 10  1  0  0  0  0
  9 11  2  0  0  0  0
 11 12  1  0  0  0  0
  5 12  2  0  0  0  0
 12 13  1  0  0  0  0
  1 13  1  0  0  0  0
  1 14  1  0  0  0  0
 14 15  1  0  0  0  0
 15 16  2  0  0  0  0
 16 17  1  0  0  0  0
 17 18  1  0  0  0  0
 17 19  2  0  0  0  0
 19 20  1  0  0  0  0
 14 20  2  0  0  0  0
 21 22  1  0  0  0  0
 22 23  1  6  0  0  0
 22 24  1  0  0  0  0
 24 25  1  1  0  0  0
 24 26  1  0  0  0  0
 26 27  1  6  0  0  0
 26 28  1  0  0  0  0
 28 29  1  0  0  0  0
 28 30  1  1  0  0  0
 30 31  1  0  0  0  0
 21 29  1  0  0  0  0
  8 21  1  0  0  0  0
 21 32  1  6  0  0  0
 33 23  1  1  0  0  0
 33 34  1  0  0  0  0
 34 35  1  0  0  0  0
 35 36  1  0  0  0  0
 36 37  1  0  0  0  0
 37 38  1  0  0  0  0
 38 33  1  0  0  0  0
 35 39  1  1  0  0  0
 37 40  1  1  0  0  0
 38 41  1  6  0  0  0
 36 42  1  6  0  0  0
 39 43  1  0  0  0  0
M  END
>  <cdx:fragmentId>
7912

$$$$
