98928.cdx
  Mrv1902 05222410202D          

 42 47  0  0  0  0            999 V2000
    6.8435   -9.5025    0.0000 H   0  0  0  0  0  0  0  0  0  0  0  0
    8.2381   -5.3658    0.0000 O   0  0  0  0  0  0  0  0  0  0  0  0
    9.6876   -7.8288    0.0000 O   0  0  0  0  0  0  0  0  0  0  0  0
    8.2792  -10.3156    0.0000 C   0  0  2  0  0  0  0  0  0  0  0  0
    8.2861  -11.1406    0.0000 C   0  0  2  0  0  0  0  0  0  0  0  0
    7.5751  -11.5590    0.0000 C   0  0  0  0  0  0  0  0  0  0  0  0
    6.8572  -11.1525    0.0000 C   0  0  0  0  0  0  0  0  0  0  0  0
    6.1462  -11.5709    0.0000 C   0  0  0  0  0  0  0  0  0  0  0  0
    5.4283  -11.1643    0.0000 C   0  0  0  0  0  0  0  0  0  0  0  0
    5.4214  -10.3394    0.0000 C   0  0  0  0  0  0  0  0  0  0  0  0
    6.1325   -9.9209    0.0000 C   0  0  0  0  0  0  0  0  0  0  0  0
    6.8503  -10.3275    0.0000 C   0  0  0  0  0  0  0  0  0  0  0  0
    7.5614   -9.9091    0.0000 O   0  0  0  0  0  0  0  0  0  0  0  0
    9.0040  -11.5471    0.0000 O   0  0  0  0  0  0  0  0  0  0  0  0
    6.1530  -12.3959    0.0000 O   0  0  0  0  0  0  0  0  0  0  0  0
    4.7036   -9.9328    0.0000 O   0  0  0  0  0  0  0  0  0  0  0  0
    6.8298   -7.8526    0.0000 C   0  0  2  0  0  0  0  0  0  0  0  0
    6.8366   -8.6775    0.0000 C   0  0  2  0  0  0  0  0  0  0  0  0
    6.1256   -9.0960    0.0000 C   0  0  1  0  0  0  0  0  0  0  0  0
    5.4077   -8.6894    0.0000 C   0  0  0  0  0  0  0  0  0  0  0  0
    4.6967   -9.1078    0.0000 C   0  0  0  0  0  0  0  0  0  0  0  0
    3.9789   -8.7013    0.0000 C   0  0  0  0  0  0  0  0  0  0  0  0
    3.9720   -7.8763    0.0000 C   0  0  0  0  0  0  0  0  0  0  0  0
    4.6830   -7.4579    0.0000 C   0  0  0  0  0  0  0  0  0  0  0  0
    5.4009   -7.8644    0.0000 C   0  0  0  0  0  0  0  0  0  0  0  0
    6.1119   -7.4460    0.0000 O   0  0  0  0  0  0  0  0  0  0  0  0
    3.2541   -7.4698    0.0000 O   0  0  0  0  0  0  0  0  0  0  0  0
    7.5545   -9.0841    0.0000 O   0  0  0  0  0  0  0  0  0  0  0  0
    7.5408   -7.4342    0.0000 C   0  0  0  0  0  0  0  0  0  0  0  0
    8.2587   -7.8407    0.0000 C   0  0  0  0  0  0  0  0  0  0  0  0
    8.9697   -7.4223    0.0000 C   0  0  0  0  0  0  0  0  0  0  0  0
    8.9628   -6.5973    0.0000 C   0  0  0  0  0  0  0  0  0  0  0  0
    8.2450   -6.1908    0.0000 C   0  0  0  0  0  0  0  0  0  0  0  0
    7.5340   -6.6092    0.0000 C   0  0  0  0  0  0  0  0  0  0  0  0
    9.6739   -6.1789    0.0000 O   0  0  0  0  0  0  0  0  0  0  0  0
    8.9903   -9.8972    0.0000 C   0  0  0  0  0  0  0  0  0  0  0  0
    9.7081  -10.3038    0.0000 C   0  0  0  0  0  0  0  0  0  0  0  0
   10.4191   -9.8853    0.0000 C   0  0  0  0  0  0  0  0  0  0  0  0
   10.4123   -9.0604    0.0000 C   0  0  0  0  0  0  0  0  0  0  0  0
    9.6944   -8.6538    0.0000 C   0  0  0  0  0  0  0  0  0  0  0  0
    8.9834   -9.0722    0.0000 C   0  0  0  0  0  0  0  0  0  0  0  0
   11.1233   -8.6419    0.0000 O   0  0  0  0  0  0  0  0  0  0  0  0
 19  1  1  1  0  0  0
 33  2  1  0  0  0  0
 40  3  1  0  0  0  0
  4  5  1  0  0  0  0
  5  6  1  0  0  0  0
  6  7  1  0  0  0  0
  7  8  1  0  0  0  0
  8  9  2  0  0  0  0
  9 10  1  0  0  0  0
 10 11  2  0  0  0  0
 11 12  1  0  0  0  0
  7 12  2  0  0  0  0
 12 13  1  0  0  0  0
  4 13  1  0  0  0  0
  5 14  1  1  0  0  0
  8 15  1  0  0  0  0
 10 16  1  0  0  0  0
 17 18  1  0  0  0  0
 18 19  1  0  0  0  0
 19 20  1  0  0  0  0
 20 21  1  0  0  0  0
 21 22  2  0  0  0  0
 22 23  1  0  0  0  0
 23 24  2  0  0  0  0
 24 25  1  0  0  0  0
 20 25  2  0  0  0  0
 25 26  1  0  0  0  0
 17 26  1  0  0  0  0
 23 27  1  0  0  0  0
 18 28  1  1  0  0  0
 29 30  1  0  0  0  0
 30 31  2  0  0  0  0
 31 32  1  0  0  0  0
 32 33  2  0  0  0  0
 33 34  1  0  0  0  0
 29 34  2  0  0  0  0
 32 35  1  0  0  0  0
 17 29  1  6  0  0  0
 19 11  1  0  0  0  0
 36 37  1  0  0  0  0
 37 38  2  0  0  0  0
 38 39  1  0  0  0  0
 39 40  2  0  0  0  0
 40 41  1  0  0  0  0
 36 41  2  0  0  0  0
 39 42  1  0  0  0  0
  4 36  1  6  0  0  0
M  END
>  <cdx:fragmentId>
31

$$$$
