9892.cdx
  Mrv1902 05222410242D          

 21 24  0  0  0  0            999 V2000
    3.8602   -8.4150    0.0000 C   0  0  0  0  0  0  0  0  0  0  0  0
    3.8602   -9.2400    0.0000 C   0  0  0  0  0  0  0  0  0  0  0  0
    4.5746   -9.6525    0.0000 C   0  0  0  0  0  0  0  0  0  0  0  0
    5.2891   -9.2400    0.0000 C   0  0  0  0  0  0  0  0  0  0  0  0
    5.2891   -8.4150    0.0000 C   0  0  0  0  0  0  0  0  0  0  0  0
    4.5746   -8.0025    0.0000 C   0  0  0  0  0  0  0  0  0  0  0  0
    6.0036   -9.6525    0.0000 C   0  0  0  0  0  0  0  0  0  0  0  0
    6.7180   -9.2400    0.0000 C   0  0  0  0  0  0  0  0  0  0  0  0
    6.7180   -8.4150    0.0000 C   0  0  0  0  0  0  0  0  0  0  0  0
    6.0036   -8.0025    0.0000 C   0  0  0  0  0  0  0  0  0  0  0  0
    7.4325   -8.0025    0.0000 C   0  0  0  0  0  0  0  0  0  0  0  0
    7.4325   -7.1775    0.0000 C   0  0  0  0  0  0  0  0  0  0  0  0
    6.7180   -6.7650    0.0000 C   0  0  0  0  0  0  0  0  0  0  0  0
    6.0036   -7.1775    0.0000 C   0  0  0  0  0  0  0  0  0  0  0  0
    8.2171   -8.2574    0.0000 O   0  0  0  0  0  0  0  0  0  0  0  0
    8.7021   -7.5900    0.0000 C   0  0  0  0  0  0  0  0  0  0  0  0
    8.2171   -6.9226    0.0000 C   0  0  2  0  0  0  0  0  0  0  0  0
    4.5746  -10.4775    0.0000 O   0  0  0  0  0  0  0  0  0  0  0  0
    8.4307   -6.1257    0.0000 C   0  0  0  0  0  0  0  0  0  0  0  0
    5.2891   -6.7650    0.0000 O   0  0  0  0  0  0  0  0  0  0  0  0
    6.7180   -5.9400    0.0000 O   0  0  0  0  0  0  0  0  0  0  0  0
  1  2  1  0  0  0  0
  2  3  1  0  0  0  0
  3  4  1  0  0  0  0
  4  5  2  0  0  0  0
  5  6  1  0  0  0  0
  6  1  1  0  0  0  0
  4  7  1  0  0  0  0
  7  8  2  0  0  0  0
  8  9  1  0  0  0  0
  9 10  2  0  0  0  0
 10  5  1  0  0  0  0
  9 11  1  0  0  0  0
 11 12  2  0  0  0  0
 12 13  1  0  0  0  0
 13 14  1  0  0  0  0
 14 10  1  0  0  0  0
 11 15  1  0  0  0  0
 15 16  1  0  0  0  0
 16 17  1  0  0  0  0
 17 12  1  0  0  0  0
  3 18  2  0  0  0  0
 17 19  1  1  0  0  0
 14 20  2  0  0  0  0
 13 21  2  0  0  0  0
M  END
>  <cdx:fragmentId>
5

$$$$
