98929.cdx
  Mrv1902 05222410202D          

 42 47  0  0  0  0            999 V2000
    8.2943   -5.3904    0.0000 O   0  0  0  0  0  0  0  0  0  0  0  0
    9.6869   -7.8860    0.0000 O   0  0  0  0  0  0  0  0  0  0  0  0
    8.2219  -10.3399    0.0000 C   0  0  1  0  0  0  0  0  0  0  0  0
    8.2098  -11.1648    0.0000 C   0  0  2  0  0  0  0  0  0  0  0  0
    7.4894  -11.5668    0.0000 C   0  0  0  0  0  0  0  0  0  0  0  0
    6.7810  -11.1439    0.0000 C   0  0  0  0  0  0  0  0  0  0  0  0
    6.0606  -11.5459    0.0000 C   0  0  0  0  0  0  0  0  0  0  0  0
    5.3522  -11.1230    0.0000 C   0  0  0  0  0  0  0  0  0  0  0  0
    5.3643  -10.2980    0.0000 C   0  0  0  0  0  0  0  0  0  0  0  0
    6.0847   -9.8960    0.0000 C   0  0  0  0  0  0  0  0  0  0  0  0
    6.7931  -10.3190    0.0000 C   0  0  0  0  0  0  0  0  0  0  0  0
    7.5135   -9.9170    0.0000 O   0  0  0  0  0  0  0  0  0  0  0  0
    8.9181  -11.5877    0.0000 O   0  0  0  0  0  0  0  0  0  0  0  0
    6.0485  -12.3708    0.0000 O   0  0  0  0  0  0  0  0  0  0  0  0
    4.6559   -9.8751    0.0000 O   0  0  0  0  0  0  0  0  0  0  0  0
    6.8293   -7.8442    0.0000 C   0  0  2  0  0  0  0  0  0  0  0  0
    6.8172   -8.6691    0.0000 C   0  0  2  0  0  0  0  0  0  0  0  0
    6.0968   -9.0711    0.0000 C   0  0  1  0  0  0  0  0  0  0  0  0
    5.3884   -8.6482    0.0000 C   0  0  0  0  0  0  0  0  0  0  0  0
    4.6680   -9.0502    0.0000 C   0  0  0  0  0  0  0  0  0  0  0  0
    3.9596   -8.6273    0.0000 C   0  0  0  0  0  0  0  0  0  0  0  0
    3.9717   -7.8024    0.0000 C   0  0  0  0  0  0  0  0  0  0  0  0
    4.6921   -7.4004    0.0000 C   0  0  0  0  0  0  0  0  0  0  0  0
    5.4005   -7.8233    0.0000 C   0  0  0  0  0  0  0  0  0  0  0  0
    6.1209   -7.4213    0.0000 O   0  0  0  0  0  0  0  0  0  0  0  0
    3.2634   -7.3795    0.0000 O   0  0  0  0  0  0  0  0  0  0  0  0
    7.5256   -9.0920    0.0000 O   0  0  0  0  0  0  0  0  0  0  0  0
    7.5497   -7.4422    0.0000 C   0  0  0  0  0  0  0  0  0  0  0  0
    8.2581   -7.8651    0.0000 C   0  0  0  0  0  0  0  0  0  0  0  0
    8.9785   -7.4631    0.0000 C   0  0  0  0  0  0  0  0  0  0  0  0
    8.9906   -6.6382    0.0000 C   0  0  0  0  0  0  0  0  0  0  0  0
    8.2822   -6.2153    0.0000 C   0  0  0  0  0  0  0  0  0  0  0  0
    7.5618   -6.6173    0.0000 C   0  0  0  0  0  0  0  0  0  0  0  0
    9.7110   -6.2362    0.0000 O   0  0  0  0  0  0  0  0  0  0  0  0
    8.9423   -9.9379    0.0000 C   0  0  0  0  0  0  0  0  0  0  0  0
    9.6506  -10.3608    0.0000 C   0  0  0  0  0  0  0  0  0  0  0  0
   10.3711   -9.9588    0.0000 C   0  0  0  0  0  0  0  0  0  0  0  0
   10.3832   -9.1339    0.0000 C   0  0  0  0  0  0  0  0  0  0  0  0
    9.6748   -8.7110    0.0000 C   0  0  0  0  0  0  0  0  0  0  0  0
    8.9544   -9.1130    0.0000 C   0  0  0  0  0  0  0  0  0  0  0  0
   11.1036   -8.7319    0.0000 O   0  0  0  0  0  0  0  0  0  0  0  0
    6.8113   -9.4836    0.0000 H   0  0  0  0  0  0  0  0  0  0  0  0
 32  1  1  0  0  0  0
 39  2  1  0  0  0  0
  3  4  1  0  0  0  0
  4  5  1  0  0  0  0
  5  6  1  0  0  0  0
  6  7  1  0  0  0  0
  7  8  2  0  0  0  0
  8  9  1  0  0  0  0
  9 10  2  0  0  0  0
 10 11  1  0  0  0  0
  6 11  2  0  0  0  0
 11 12  1  0  0  0  0
  3 12  1  0  0  0  0
  4 13  1  1  0  0  0
  7 14  1  0  0  0  0
  9 15  1  0  0  0  0
 16 17  1  0  0  0  0
 17 18  1  0  0  0  0
 18 19  1  0  0  0  0
 19 20  1  0  0  0  0
 20 21  2  0  0  0  0
 21 22  1  0  0  0  0
 22 23  2  0  0  0  0
 23 24  1  0  0  0  0
 19 24  2  0  0  0  0
 24 25  1  0  0  0  0
 16 25  1  0  0  0  0
 22 26  1  0  0  0  0
 17 27  1  1  0  0  0
 28 29  1  0  0  0  0
 29 30  2  0  0  0  0
 30 31  1  0  0  0  0
 31 32  2  0  0  0  0
 32 33  1  0  0  0  0
 28 33  2  0  0  0  0
 31 34  1  0  0  0  0
 16 28  1  6  0  0  0
 18 10  1  0  0  0  0
 35 36  1  0  0  0  0
 36 37  2  0  0  0  0
 37 38  1  0  0  0  0
 38 39  2  0  0  0  0
 39 40  1  0  0  0  0
 35 40  2  0  0  0  0
 38 41  1  0  0  0  0
  3 35  1  1  0  0  0
 18 42  1  1  0  0  0
M  END
>  <cdx:fragmentId>
31

$$$$
