98927.cdx
  Mrv1902 05222410262D          

 28 31  0  0  0  0            999 V2000
    6.9487   -6.3388    0.0000 C   0  0  0  0  0  0  0  0  0  0  0  0
    6.9487   -7.1638    0.0000 O   0  0  0  0  0  0  0  0  0  0  0  0
    7.6631   -7.5762    0.0000 C   0  0  0  0  0  0  0  0  0  0  0  0
    8.3776   -7.1638    0.0000 C   0  0  0  0  0  0  0  0  0  0  0  0
    8.3776   -6.3388    0.0000 C   0  0  0  0  0  0  0  0  0  0  0  0
    7.6631   -5.9262    0.0000 C   0  0  0  0  0  0  0  0  0  0  0  0
    6.2342   -8.4013    0.0000 O   0  0  0  0  0  0  0  0  0  0  0  0
    6.9487   -8.8138    0.0000 C   0  0  0  0  0  0  0  0  0  0  0  0
    7.6631   -8.4013    0.0000 O   0  0  0  0  0  0  0  0  0  0  0  0
    5.5197   -8.8138    0.0000 C   0  0  0  0  0  0  0  0  0  0  0  0
    5.5197   -9.6387    0.0000 C   0  0  0  0  0  0  0  0  0  0  0  0
    6.2342  -10.0512    0.0000 C   0  0  0  0  0  0  0  0  0  0  0  0
    6.9487   -9.6387    0.0000 C   0  0  0  0  0  0  0  0  0  0  0  0
    4.8053   -8.4013    0.0000 C   0  0  0  0  0  0  0  0  0  0  0  0
    4.0908   -8.8138    0.0000 O   0  0  0  0  0  0  0  0  0  0  0  0
    4.8053  -10.0512    0.0000 O   0  0  0  0  0  0  0  0  0  0  0  0
    9.1622   -7.4187    0.0000 C   0  0  0  0  0  0  0  0  0  0  0  0
    9.6472   -6.7512    0.0000 C   0  0  0  0  0  0  0  0  0  0  0  0
    9.1622   -6.0838    0.0000 C   0  0  0  0  0  0  0  0  0  0  0  0
    9.9827   -7.5049    0.0000 C   0  0  0  0  0  0  0  0  0  0  0  0
    9.4172   -5.2992    0.0000 O   0  0  0  0  0  0  0  0  0  0  0  0
    8.9907   -8.2257    0.0000 C   0  0  0  0  0  0  0  0  0  0  0  0
    9.6038   -8.7777    0.0000 O   0  0  0  0  0  0  0  0  0  0  0  0
    9.4323   -9.5847    0.0000 C   0  0  0  0  0  0  0  0  0  0  0  0
   10.0454  -10.1367    0.0000 C   0  0  0  0  0  0  0  0  0  0  0  0
    8.6477   -9.8396    0.0000 O   0  0  0  0  0  0  0  0  0  0  0  0
    6.2342  -10.8762    0.0000 O   0  0  0  0  0  0  0  0  0  0  0  0
    7.6631  -10.0512    0.0000 O   0  0  0  0  0  0  0  0  0  0  0  0
  1  2  1  0  0  0  0
  2  3  1  0  0  0  0
  3  4  1  0  0  0  0
  4  5  1  0  0  0  0
  5  6  1  0  0  0  0
  6  1  2  0  0  0  0
  7  8  1  0  0  0  0
  8  9  1  0  0  0  0
  9  3  1  0  0  0  0
  7 10  1  0  0  0  0
 10 11  1  0  0  0  0
 11 12  1  0  0  0  0
 12 13  1  0  0  0  0
 13  8  1  0  0  0  0
 10 14  1  0  0  0  0
 14 15  1  0  0  0  0
 16 11  1  0  0  0  0
  4 17  1  0  0  0  0
 17 18  1  0  0  0  0
 18 19  1  0  0  0  0
 19  5  1  0  0  0  0
 17 20  1  0  0  0  0
 20 18  1  0  0  0  0
 19 21  1  0  0  0  0
 17 22  1  0  0  0  0
 22 23  1  0  0  0  0
 23 24  1  0  0  0  0
 24 25  1  0  0  0  0
 24 26  2  0  0  0  0
 12 27  1  0  0  0  0
 13 28  1  0  0  0  0
M  END
>  <cdx:fragmentId>
5

$$$$
