98925.cdx
  Mrv1902 05222410262D          

 17 18  0  0  0  0            999 V2000
    4.8955   -7.7000    0.0000 C   0  0  0  0  0  0  0  0  0  0  0  0
    4.8955   -8.5250    0.0000 C   0  0  0  0  0  0  0  0  0  0  0  0
    5.6100   -8.9375    0.0000 C   0  0  0  0  0  0  0  0  0  0  0  0
    6.3245   -8.5250    0.0000 C   0  0  0  0  0  0  0  0  0  0  0  0
    6.3245   -7.7000    0.0000 C   0  0  0  0  0  0  0  0  0  0  0  0
    5.6100   -7.2875    0.0000 C   0  0  0  0  0  0  0  0  0  0  0  0
    7.0389   -8.9375    0.0000 C   0  0  0  0  0  0  0  0  0  0  0  0
    7.7534   -8.5250    0.0000 C   0  0  0  0  0  0  0  0  0  0  0  0
    7.7534   -7.7000    0.0000 C   0  0  0  0  0  0  0  0  0  0  0  0
    7.0389   -7.2875    0.0000 C   0  0  0  0  0  0  0  0  0  0  0  0
    8.5380   -8.7799    0.0000 C   0  0  0  0  0  0  0  0  0  0  0  0
    9.0230   -8.1125    0.0000 C   0  0  0  0  0  0  0  0  0  0  0  0
    8.5380   -7.4451    0.0000 O   0  0  0  0  0  0  0  0  0  0  0  0
    8.7930   -9.5646    0.0000 C   0  0  0  0  0  0  0  0  0  0  0  0
    7.0389   -9.7625    0.0000 O   0  0  0  0  0  0  0  0  0  0  0  0
    5.6100   -9.7625    0.0000 C   0  0  0  0  0  0  0  0  0  0  0  0
    6.3245   -6.8750    0.0000 C   0  0  0  0  0  0  0  0  0  0  0  0
  1  2  1  0  0  0  0
  2  3  1  0  0  0  0
  3  4  1  0  0  0  0
  5  6  2  0  0  0  0
  6  1  1  0  0  0  0
  4  7  1  0  0  0  0
  7  8  1  0  0  0  0
  8  9  2  0  0  0  0
  9 10  1  0  0  0  0
 10  5  1  0  0  0  0
  8 11  1  0  0  0  0
 11 12  2  0  0  0  0
 12 13  1  0  0  0  0
 13  9  1  0  0  0  0
 11 14  1  0  0  0  0
  7 15  2  0  0  0  0
  3 16  1  0  0  0  0
  5 17  1  0  0  0  0
M  END
>  <cdx:fragmentId>
81

$$$$
