98931.cdx
  Mrv1902 05222410262D          

 76 85  0  0  0  0            999 V2000
   12.9636   -7.8375    0.0000 C   0  0  0  0  0  0  0  0  0  0  0  0
   12.9636   -8.6625    0.0000 C   0  0  1  0  0  0  0  0  0  0  0  0
   13.6780   -9.0750    0.0000 C   0  0  0  0  0  0  0  0  0  0  0  0
   14.3925   -8.6625    0.0000 C   0  0  0  0  0  0  0  0  0  0  0  0
   14.3925   -7.8375    0.0000 C   0  0  2  0  0  0  0  0  0  0  0  0
   13.6780   -7.4250    0.0000 C   0  0  0  0  0  0  0  0  0  0  0  0
   15.1070   -9.0750    0.0000 C   0  0  0  0  0  0  0  0  0  0  0  0
   15.8214   -8.6625    0.0000 C   0  0  0  0  0  0  0  0  0  0  0  0
   15.8214   -7.8375    0.0000 C   0  0  2  0  0  0  0  0  0  0  0  0
   15.1070   -7.4250    0.0000 C   0  0  2  0  0  0  0  0  0  0  0  0
   16.5359   -7.4250    0.0000 C   0  0  2  0  0  0  0  0  0  0  0  0
   16.5359   -6.6000    0.0000 C   0  0  1  0  0  0  0  0  0  0  0  0
   15.8214   -6.1875    0.0000 C   0  0  0  0  0  0  0  0  0  0  0  0
   15.1070   -6.6000    0.0000 C   0  0  0  0  0  0  0  0  0  0  0  0
   12.2491   -9.0750    0.0000 O   0  0  0  0  0  0  0  0  0  0  0  0
   14.3925   -7.0125    0.0000 C   0  0  0  0  0  0  0  0  0  0  0  0
   16.5359   -8.2500    0.0000 O   0  0  0  0  0  0  0  0  0  0  0  0
   10.8157   -7.4106    0.0000 C   0  0  2  0  0  0  0  0  0  0  0  0
   10.1013   -7.8231    0.0000 C   0  0  2  0  0  0  0  0  0  0  0  0
   10.1012   -8.6481    0.0000 C   0  0  1  0  0  0  0  0  0  0  0  0
   10.8157   -9.0606    0.0000 C   0  0  2  0  0  0  0  0  0  0  0  0
   11.5302   -8.6481    0.0000 C   0  0  1  0  0  0  0  0  0  0  0  0
   11.5302   -7.8231    0.0000 O   0  0  0  0  0  0  0  0  0  0  0  0
   10.8158   -6.5856    0.0000 C   0  0  0  0  0  0  0  0  0  0  0  0
    9.3867   -9.0605    0.0000 O   0  0  0  0  0  0  0  0  0  0  0  0
    9.3868   -7.4105    0.0000 O   0  0  0  0  0  0  0  0  0  0  0  0
   10.8157   -9.8856    0.0000 O   0  0  0  0  0  0  0  0  0  0  0  0
   11.5302   -6.1731    0.0000 O   0  0  0  0  0  0  0  0  0  0  0  0
   10.1103   -5.3337    0.0000 C   0  0  2  0  0  0  0  0  0  0  0  0
    9.3970   -4.9193    0.0000 C   0  0  2  0  0  0  0  0  0  0  0  0
    8.6814   -5.3298    0.0000 C   0  0  1  0  0  0  0  0  0  0  0  0
    8.6791   -6.1548    0.0000 C   0  0  2  0  0  0  0  0  0  0  0  0
    9.3925   -6.5693    0.0000 C   0  0  1  0  0  0  0  0  0  0  0  0
   10.1081   -6.1587    0.0000 O   0  0  0  0  0  0  0  0  0  0  0  0
   10.8259   -4.9232    0.0000 C   0  0  0  0  0  0  0  0  0  0  0  0
    7.9680   -4.9154    0.0000 O   0  0  0  0  0  0  0  0  0  0  0  0
    9.3992   -4.0943    0.0000 O   0  0  0  0  0  0  0  0  0  0  0  0
    7.9636   -6.5654    0.0000 O   0  0  0  0  0  0  0  0  0  0  0  0
   10.8281   -4.0982    0.0000 O   0  0  0  0  0  0  0  0  0  0  0  0
    7.9500   -7.4138    0.0000 C   0  0  0  0  0  0  0  0  0  0  0  0
    7.2355   -7.8263    0.0000 C   0  0  2  0  0  0  0  0  0  0  0  0
    7.2355   -8.6513    0.0000 C   0  0  1  0  0  0  0  0  0  0  0  0
    7.9499   -9.0638    0.0000 C   0  0  2  0  0  0  0  0  0  0  0  0
    8.6644   -8.6513    0.0000 C   0  0  1  0  0  0  0  0  0  0  0  0
    8.6644   -7.8263    0.0000 O   0  0  0  0  0  0  0  0  0  0  0  0
    6.5210   -9.0638    0.0000 O   0  0  0  0  0  0  0  0  0  0  0  0
    6.5210   -7.4138    0.0000 O   0  0  0  0  0  0  0  0  0  0  0  0
    7.9499   -9.8888    0.0000 O   0  0  0  0  0  0  0  0  0  0  0  0
    9.1725  -11.3326    0.0000 C   0  0  1  0  0  0  0  0  0  0  0  0
    9.5870  -12.0459    0.0000 C   0  0  1  0  0  0  0  0  0  0  0  0
   10.4120  -12.0435    0.0000 C   0  0  2  0  0  0  0  0  0  0  0  0
   10.8225  -11.3279    0.0000 C   0  0  2  0  0  0  0  0  0  0  0  0
   10.4079  -10.6146    0.0000 C   0  0  1  0  0  0  0  0  0  0  0  0
    9.5829  -10.6169    0.0000 O   0  0  0  0  0  0  0  0  0  0  0  0
    9.1765  -12.7615    0.0000 O   0  0  0  0  0  0  0  0  0  0  0  0
    8.3475  -11.3349    0.0000 C   0  0  0  0  0  0  0  0  0  0  0  0
   10.8265  -12.7568    0.0000 O   0  0  0  0  0  0  0  0  0  0  0  0
   11.6475  -11.3255    0.0000 O   0  0  0  0  0  0  0  0  0  0  0  0
   16.5359   -5.7750    0.0000 C   0  0  0  0  0  0  0  0  0  0  0  0
   17.3205   -7.6799    0.0000 C   0  0  0  0  0  0  0  0  0  0  0  0
   17.8055   -7.0125    0.0000 C   0  0  1  0  0  0  0  0  0  0  0  0
   17.3205   -6.3451    0.0000 C   0  0  2  0  0  0  0  0  0  0  0  0
   18.5901   -6.7576    0.0000 O   0  0  0  0  0  0  0  0  0  0  0  0
   18.5901   -5.9326    0.0000 C   0  0  1  0  0  0  0  0  0  0  0  0
   17.8055   -5.6776    0.0000 C   0  0  1  0  0  0  0  0  0  0  0  0
   19.3438   -6.2681    0.0000 C   0  0  0  0  0  0  0  0  0  0  0  0
   20.0112   -5.7832    0.0000 C   0  0  0  0  0  0  0  0  0  0  0  0
   19.9250   -4.9627    0.0000 C   0  0  2  0  0  0  0  0  0  0  0  0
   19.1713   -4.6272    0.0000 C   0  0  0  0  0  0  0  0  0  0  0  0
   18.5038   -5.1121    0.0000 O   0  0  0  0  0  0  0  0  0  0  0  0
   16.9080   -5.6306    0.0000 O   0  0  0  0  0  0  0  0  0  0  0  0
   17.5505   -4.8930    0.0000 C   0  0  0  0  0  0  0  0  0  0  0  0
   20.5924   -4.4778    0.0000 C   0  0  0  0  0  0  0  0  0  0  0  0
   15.1070   -8.2500    0.0000 H   0  0  0  0  0  0  0  0  0  0  0  0
   15.8214   -7.0125    0.0000 H   0  0  0  0  0  0  0  0  0  0  0  0
   18.2180   -7.7270    0.0000 H   0  0  0  0  0  0  0  0  0  0  0  0
  1  2  1  0  0  0  0
  2  3  1  0  0  0  0
  3  4  1  0  0  0  0
  4  5  1  0  0  0  0
  5  6  1  0  0  0  0
  6  1  1  0  0  0  0
  4  7  2  0  0  0  0
  7  8  1  0  0  0  0
  8  9  1  0  0  0  0
  9 10  1  0  0  0  0
 10  5  1  0  0  0  0
  9 11  1  0  0  0  0
 11 12  1  0  0  0  0
 12 13  1  0  0  0  0
 13 14  1  0  0  0  0
 14 10  1  0  0  0  0
  2 15  1  1  0  0  0
  5 16  1  1  0  0  0
 11 17  1  6  0  0  0
 18 19  1  0  0  0  0
 19 20  1  0  0  0  0
 20 21  1  0  0  0  0
 21 22  1  0  0  0  0
 22 23  1  0  0  0  0
 23 18  1  0  0  0  0
 18 24  1  1  0  0  0
 20 25  1  1  0  0  0
 19 26  1  6  0  0  0
 21 27  1  6  0  0  0
 24 28  1  0  0  0  0
 29 30  1  0  0  0  0
 30 31  1  0  0  0  0
 31 32  1  0  0  0  0
 32 33  1  0  0  0  0
 33 34  1  0  0  0  0
 34 29  1  0  0  0  0
 29 35  1  1  0  0  0
 31 36  1  1  0  0  0
 30 37  1  6  0  0  0
 32 38  1  6  0  0  0
 35 39  1  0  0  0  0
 40 41  1  0  0  0  0
 41 42  1  0  0  0  0
 42 43  1  0  0  0  0
 43 44  1  0  0  0  0
 44 45  1  0  0  0  0
 45 40  1  0  0  0  0
 42 46  1  1  0  0  0
 41 47  1  6  0  0  0
 43 48  1  6  0  0  0
 49 50  1  0  0  0  0
 50 51  1  0  0  0  0
 51 52  1  0  0  0  0
 52 53  1  0  0  0  0
 53 54  1  0  0  0  0
 54 49  1  0  0  0  0
 50 55  1  1  0  0  0
 49 56  1  6  0  0  0
 51 57  1  6  0  0  0
 52 58  1  6  0  0  0
 33 26  1  1  0  0  0
 44 25  1  1  0  0  0
 53 27  1  1  0  0  0
 22 15  1  1  0  0  0
 12 59  1  1  0  0  0
 11 60  1  0  0  0  0
 60 61  1  0  0  0  0
 61 62  1  0  0  0  0
 62 12  1  0  0  0  0
 61 63  1  0  0  0  0
 64 63  1  6  0  0  0
 64 65  1  0  0  0  0
 65 62  1  0  0  0  0
 64 66  1  0  0  0  0
 66 67  1  0  0  0  0
 67 68  1  0  0  0  0
 68 69  1  0  0  0  0
 69 70  1  0  0  0  0
 70 64  1  0  0  0  0
 62 71  1  6  0  0  0
 65 72  1  6  0  0  0
 68 73  1  6  0  0  0
 10 74  1  6  0  0  0
  9 75  1  1  0  0  0
 61 76  1  6  0  0  0
M  END
>  <cdx:fragmentId>
109

$$$$
