98937.cdx
  Mrv1902 05222410272D          

 56 61  0  0  0  0            999 V2000
    8.5971   -4.3122    0.0000 C   0  0  0  0  0  0  0  0  0  0  0  0
    8.5971   -3.4872    0.0000 C   0  0  0  0  0  0  0  0  0  0  0  0
    9.3116   -3.0747    0.0000 C   0  0  0  0  0  0  0  0  0  0  0  0
   10.0260   -3.4872    0.0000 C   0  0  0  0  0  0  0  0  0  0  0  0
   10.0260   -4.3122    0.0000 C   0  0  0  0  0  0  0  0  0  0  0  0
    9.3116   -4.7247    0.0000 C   0  0  0  0  0  0  0  0  0  0  0  0
   10.7405   -3.0747    0.0000 O   0  0  0  0  0  0  0  0  0  0  0  0
    9.3116   -2.2497    0.0000 O   0  0  0  0  0  0  0  0  0  0  0  0
    5.7392   -6.7872    0.0000 O   0  0  0  0  0  0  0  0  0  0  0  0
    4.3103   -4.3122    0.0000 O   0  0  0  0  0  0  0  0  0  0  0  0
   10.0260   -6.7872    0.0000 O   0  0  0  0  0  0  0  0  0  0  0  0
   10.0260   -8.4372    0.0000 O   0  0  0  0  0  0  0  0  0  0  0  0
    8.5971   -9.2622    0.0000 O   0  0  0  0  0  0  0  0  0  0  0  0
    6.4537   -9.6747    0.0000 O   0  0  0  0  0  0  0  0  0  0  0  0
    5.0247  -10.4997    0.0000 O   0  0  0  0  0  0  0  0  0  0  0  0
    3.5958   -9.6747    0.0000 O   0  0  0  0  0  0  0  0  0  0  0  0
    3.5958   -8.0247    0.0000 C   0  0  0  0  0  0  0  0  0  0  0  0
    4.3103   -8.4372    0.0000 C   0  0  1  0  0  0  0  0  0  0  0  0
    4.3103   -9.2622    0.0000 C   0  0  1  0  0  0  0  0  0  0  0  0
    5.0247   -9.6747    0.0000 C   0  0  2  0  0  0  0  0  0  0  0  0
    5.7392   -9.2622    0.0000 C   0  0  2  0  0  0  0  0  0  0  0  0
    5.7392   -8.4372    0.0000 C   0  0  1  0  0  0  0  0  0  0  0  0
    5.0247   -8.0247    0.0000 O   0  0  0  0  0  0  0  0  0  0  0  0
    6.4537   -8.0247    0.0000 O   0  0  0  0  0  0  0  0  0  0  0  0
    7.1681   -8.4372    0.0000 C   0  0  0  0  0  0  0  0  0  0  0  0
    7.8826   -8.0247    0.0000 C   0  0  2  0  0  0  0  0  0  0  0  0
    8.5971   -8.4372    0.0000 C   0  0  2  0  0  0  0  0  0  0  0  0
    9.3116   -8.0247    0.0000 C   0  0  1  0  0  0  0  0  0  0  0  0
    9.3116   -7.1997    0.0000 C   0  0  2  0  0  0  0  0  0  0  0  0
    8.5971   -6.7872    0.0000 C   0  0  1  0  0  0  0  0  0  0  0  0
    7.8826   -7.1997    0.0000 O   0  0  0  0  0  0  0  0  0  0  0  0
    8.5971   -5.9622    0.0000 O   0  0  0  0  0  0  0  0  0  0  0  0
    7.1681   -6.7872    0.0000 O   0  0  0  0  0  0  0  0  0  0  0  0
    7.1681   -4.3122    0.0000 O   0  0  0  0  0  0  0  0  0  0  0  0
    6.4537   -4.7247    0.0000 C   0  0  0  0  0  0  0  0  0  0  0  0
    5.7392   -4.3122    0.0000 C   0  0  0  0  0  0  0  0  0  0  0  0
    5.0247   -4.7247    0.0000 C   0  0  0  0  0  0  0  0  0  0  0  0
    5.0247   -5.5497    0.0000 C   0  0  0  0  0  0  0  0  0  0  0  0
    5.7392   -5.9622    0.0000 C   0  0  0  0  0  0  0  0  0  0  0  0
    6.4537   -5.5497    0.0000 C   0  0  0  0  0  0  0  0  0  0  0  0
    7.1681   -5.9622    0.0000 C   0  0  0  0  0  0  0  0  0  0  0  0
    7.8826   -5.5497    0.0000 C   0  0  0  0  0  0  0  0  0  0  0  0
    7.8826   -4.7247    0.0000 C   0  0  0  0  0  0  0  0  0  0  0  0
    4.9962  -12.1275    0.0000 C   0  0  0  0  0  0  0  0  0  0  0  0
    4.9962  -12.9525    0.0000 C   0  0  0  0  0  0  0  0  0  0  0  0
    5.7106  -13.3650    0.0000 C   0  0  0  0  0  0  0  0  0  0  0  0
    6.4251  -12.9525    0.0000 C   0  0  0  0  0  0  0  0  0  0  0  0
    6.4251  -12.1275    0.0000 C   0  0  0  0  0  0  0  0  0  0  0  0
    5.7106  -11.7150    0.0000 C   0  0  0  0  0  0  0  0  0  0  0  0
    5.7106  -10.8900    0.0000 C   0  0  0  0  0  0  0  0  0  0  0  0
    4.2817  -13.3650    0.0000 O   0  0  0  0  0  0  0  0  0  0  0  0
    3.5672  -12.9525    0.0000 C   0  0  0  0  0  0  0  0  0  0  0  0
    5.7106  -14.1900    0.0000 O   0  0  0  0  0  0  0  0  0  0  0  0
    7.1396  -13.3650    0.0000 O   0  0  0  0  0  0  0  0  0  0  0  0
    7.8541  -12.9525    0.0000 C   0  0  0  0  0  0  0  0  0  0  0  0
    6.4238  -10.4753    0.0000 O   0  0  0  0  0  0  0  0  0  0  0  0
 43  1  1  0  0  0  0
 39  9  1  0  0  0  0
 37 10  1  0  0  0  0
 42 32  1  0  0  0  0
 30 32  1  1  0  0  0
 29 11  1  6  0  0  0
 28 12  1  1  0  0  0
 27 13  1  6  0  0  0
 26 25  1  1  0  0  0
 25 24  1  0  0  0  0
 22 24  1  1  0  0  0
 21 14  1  6  0  0  0
 20 15  1  6  0  0  0
 19 16  1  1  0  0  0
 18 17  1  6  0  0  0
 23 18  1  0  0  0  0
 19 18  1  0  0  0  0
 20 19  1  0  0  0  0
 21 20  1  0  0  0  0
 22 21  1  0  0  0  0
 23 22  1  0  0  0  0
 31 26  1  0  0  0  0
 27 26  1  0  0  0  0
 28 27  1  0  0  0  0
 29 28  1  0  0  0  0
 30 29  1  0  0  0  0
 31 30  1  0  0  0  0
 41 33  2  0  0  0  0
 43 34  1  0  0  0  0
 35 34  1  0  0  0  0
 40 35  2  0  0  0  0
 36 35  1  0  0  0  0
 37 36  2  0  0  0  0
 38 37  1  0  0  0  0
 39 38  2  0  0  0  0
 40 39  1  0  0  0  0
 41 40  1  0  0  0  0
 42 41  1  0  0  0  0
 43 42  2  0  0  0  0
  1  2  1  0  0  0  0
  2  3  2  0  0  0  0
  3  4  1  0  0  0  0
  4  5  2  0  0  0  0
  5  6  1  0  0  0  0
  1  6  2  0  0  0  0
  4  7  1  0  0  0  0
  3  8  1  0  0  0  0
 44 45  2  0  0  0  0
 45 46  1  0  0  0  0
 46 47  2  0  0  0  0
 47 48  1  0  0  0  0
 48 49  2  0  0  0  0
 49 44  1  0  0  0  0
 49 50  1  0  0  0  0
 45 51  1  0  0  0  0
 51 52  1  0  0  0  0
 46 53  1  0  0  0  0
 47 54  1  0  0  0  0
 54 55  1  0  0  0  0
 50 15  1  0  0  0  0
 50 56  2  0  0  0  0
M  END
>  <cdx:fragmentId>
45

$$$$
