98932.cdx
  Mrv1902 05222410272D          

 25 27  0  0  0  0            999 V2000
    7.2107   -5.9210    0.0000 C   0  0  1  0  0  0  0  0  0  0  0  0
    6.4962   -5.5085    0.0000 C   0  0  0  0  0  0  0  0  0  0  0  0
    5.7817   -5.9210    0.0000 C   0  0  0  0  0  0  0  0  0  0  0  0
    5.7817   -6.7460    0.0000 C   0  0  0  0  0  0  0  0  0  0  0  0
    6.4962   -7.1585    0.0000 C   0  0  2  0  0  0  0  0  0  0  0  0
    7.2107   -6.7460    0.0000 C   0  0  1  0  0  0  0  0  0  0  0  0
    7.9251   -6.3335    0.0000 O   0  0  0  0  0  0  0  0  0  0  0  0
    6.4962   -4.6835    0.0000 O   0  0  0  0  0  0  0  0  0  0  0  0
    7.6232   -7.4605    0.0000 C   0  0  0  0  0  0  0  0  0  0  0  0
    5.3692   -7.4605    0.0000 C   0  0  0  0  0  0  0  0  0  0  0  0
    4.9567   -6.7460    0.0000 C   0  0  0  0  0  0  0  0  0  0  0  0
    6.4962   -7.9835    0.0000 C   0  0  0  0  0  0  0  0  0  0  0  0
    7.2107   -8.3960    0.0000 O   0  0  0  0  0  0  0  0  0  0  0  0
    7.6232   -5.2065    0.0000 H   0  0  0  0  0  0  0  0  0  0  0  0
    6.5022  -10.4771    0.0000 C   0  0  2  0  0  0  0  0  0  0  0  0
    7.2177  -10.8878    0.0000 C   0  0  2  0  0  0  0  0  0  0  0  0
    7.9311  -10.4735    0.0000 C   0  0  1  0  0  0  0  0  0  0  0  0
    7.9290   -9.6485    0.0000 C   0  0  2  0  0  0  0  0  0  0  0  0
    7.2134   -9.2378    0.0000 C   0  0  1  0  0  0  0  0  0  0  0  0
    6.5000   -9.6521    0.0000 O   0  0  0  0  0  0  0  0  0  0  0  0
    5.7887  -10.8915    0.0000 C   0  0  0  0  0  0  0  0  0  0  0  0
    8.6466  -10.8841    0.0000 O   0  0  0  0  0  0  0  0  0  0  0  0
    7.2198  -11.7128    0.0000 O   0  0  0  0  0  0  0  0  0  0  0  0
    8.6424   -9.2341    0.0000 O   0  0  0  0  0  0  0  0  0  0  0  0
    5.7909  -11.7165    0.0000 O   0  0  0  0  0  0  0  0  0  0  0  0
  1  2  1  0  0  0  0
  2  3  1  0  0  0  0
  3  4  1  0  0  0  0
  4  5  1  0  0  0  0
  5  6  1  0  0  0  0
  6  7  1  0  0  0  0
  1  7  1  0  0  0  0
  1  6  1  0  0  0  0
  2  8  2  0  0  0  0
  6  9  1  1  0  0  0
  4 10  1  0  0  0  0
  4 11  1  0  0  0  0
 12 13  1  0  0  0  0
  5 12  1  6  0  0  0
  1 14  1  1  0  0  0
 15 16  1  0  0  0  0
 16 17  1  0  0  0  0
 17 18  1  0  0  0  0
 18 19  1  0  0  0  0
 19 20  1  0  0  0  0
 20 15  1  0  0  0  0
 15 21  1  1  0  0  0
 17 22  1  1  0  0  0
 16 23  1  6  0  0  0
 18 24  1  6  0  0  0
 21 25  1  0  0  0  0
 19 13  1  1  0  0  0
M  END
>  <cdx:fragmentId>
5

$$$$
