98935.cdx
  Mrv1902 05222410282D          

 34 37  0  0  0  0            999 V2000
    8.2381   -5.3658    0.0000 O   0  0  0  0  0  0  0  0  0  0  0  0
    6.8298   -7.8526    0.0000 C   0  0  2  0  0  0  0  0  0  0  0  0
    6.8366   -8.6775    0.0000 C   0  0  2  0  0  0  0  0  0  0  0  0
    6.1256   -9.0960    0.0000 C   0  0  0  0  0  0  0  0  0  0  0  0
    5.4077   -8.6894    0.0000 C   0  0  0  0  0  0  0  0  0  0  0  0
    4.6967   -9.1078    0.0000 C   0  0  0  0  0  0  0  0  0  0  0  0
    3.9789   -8.7013    0.0000 C   0  0  0  0  0  0  0  0  0  0  0  0
    3.9720   -7.8763    0.0000 C   0  0  0  0  0  0  0  0  0  0  0  0
    4.6830   -7.4579    0.0000 C   0  0  0  0  0  0  0  0  0  0  0  0
    5.4009   -7.8644    0.0000 C   0  0  0  0  0  0  0  0  0  0  0  0
    6.1119   -7.4460    0.0000 O   0  0  0  0  0  0  0  0  0  0  0  0
    3.2541   -7.4698    0.0000 O   0  0  0  0  0  0  0  0  0  0  0  0
    7.5545   -9.0841    0.0000 O   0  0  0  0  0  0  0  0  0  0  0  0
    7.5408   -7.4342    0.0000 C   0  0  0  0  0  0  0  0  0  0  0  0
    8.2587   -7.8407    0.0000 C   0  0  0  0  0  0  0  0  0  0  0  0
    8.9697   -7.4223    0.0000 C   0  0  0  0  0  0  0  0  0  0  0  0
    8.9628   -6.5973    0.0000 C   0  0  0  0  0  0  0  0  0  0  0  0
    8.2450   -6.1908    0.0000 C   0  0  0  0  0  0  0  0  0  0  0  0
    7.5340   -6.6092    0.0000 C   0  0  0  0  0  0  0  0  0  0  0  0
    9.6739   -6.1789    0.0000 C   0  0  2  0  0  0  0  0  0  0  0  0
    9.6876   -7.8288    0.0000 O   0  0  0  0  0  0  0  0  0  0  0  0
    3.2678   -9.1197    0.0000 O   0  0  0  0  0  0  0  0  0  0  0  0
    4.7036   -9.9328    0.0000 O   0  0  0  0  0  0  0  0  0  0  0  0
   10.3951   -6.5795    0.0000 O   0  0  0  0  0  0  0  0  0  0  0  0
   11.1026   -6.1789    0.0000 C   0  0  1  0  0  0  0  0  0  0  0  0
   11.1026   -5.3540    0.0000 C   0  0  2  0  0  0  0  0  0  0  0  0
   10.3951   -4.9534    0.0000 C   0  0  1  0  0  0  0  0  0  0  0  0
    9.6739   -5.3540    0.0000 C   0  0  1  0  0  0  0  0  0  0  0  0
   11.8153   -6.5944    0.0000 C   0  0  0  0  0  0  0  0  0  0  0  0
   10.3985   -4.1284    0.0000 O   0  0  0  0  0  0  0  0  0  0  0  0
   12.5315   -6.1849    0.0000 O   0  0  0  0  0  0  0  0  0  0  0  0
   11.8153   -4.9385    0.0000 O   0  0  0  0  0  0  0  0  0  0  0  0
    8.9628   -4.9356    0.0000 O   0  0  0  0  0  0  0  0  0  0  0  0
    9.6739   -7.0039    0.0000 H   0  0  0  0  0  0  0  0  0  0  0  0
 18  1  1  0  0  0  0
  2  3  1  0  0  0  0
  3  4  1  0  0  0  0
  4  5  1  0  0  0  0
  5  6  1  0  0  0  0
  6  7  2  0  0  0  0
  7  8  1  0  0  0  0
  8  9  2  0  0  0  0
  9 10  1  0  0  0  0
  5 10  2  0  0  0  0
 10 11  1  0  0  0  0
  2 11  1  0  0  0  0
  8 12  1  0  0  0  0
  3 13  1  1  0  0  0
 14 15  1  0  0  0  0
 15 16  2  0  0  0  0
 16 17  1  0  0  0  0
 17 18  2  0  0  0  0
 18 19  1  0  0  0  0
 14 19  2  0  0  0  0
 17 20  1  0  0  0  0
  2 14  1  6  0  0  0
 16 21  1  0  0  0  0
  7 22  1  0  0  0  0
  6 23  1  0  0  0  0
 20 24  1  0  0  0  0
 24 25  1  0  0  0  0
 25 26  1  0  0  0  0
 26 27  1  0  0  0  0
 27 28  1  0  0  0  0
 28 20  1  0  0  0  0
 25 29  1  1  0  0  0
 27 30  1  1  0  0  0
 29 31  1  0  0  0  0
 26 32  1  6  0  0  0
 28 33  1  6  0  0  0
 20 34  1  6  0  0  0
M  END
>  <cdx:fragmentId>
31

$$$$
