98939.cdx
  Mrv1902 05222410182D          

 55 60  0  0  0  0            999 V2000
    7.6626   -4.2572    0.0000 C   0  0  0  0  0  0  0  0  0  0  0  0
    7.6626   -5.0822    0.0000 C   0  0  0  0  0  0  0  0  0  0  0  0
    6.9481   -5.4947    0.0000 C   0  0  0  0  0  0  0  0  0  0  0  0
    6.9481   -6.3197    0.0000 O   0  0  0  0  0  0  0  0  0  0  0  0
    6.2337   -5.0822    0.0000 C   0  0  0  0  0  0  0  0  0  0  0  0
    5.5192   -5.4947    0.0000 C   0  0  0  0  0  0  0  0  0  0  0  0
    5.5192   -6.3197    0.0000 O   0  0  0  0  0  0  0  0  0  0  0  0
    4.8047   -5.0822    0.0000 C   0  0  0  0  0  0  0  0  0  0  0  0
    4.8047   -4.2572    0.0000 C   0  0  0  0  0  0  0  0  0  0  0  0
    4.0903   -3.8447    0.0000 O   0  0  0  0  0  0  0  0  0  0  0  0
    5.5192   -3.8447    0.0000 C   0  0  0  0  0  0  0  0  0  0  0  0
    6.2337   -4.2572    0.0000 C   0  0  0  0  0  0  0  0  0  0  0  0
    6.9481   -3.8447    0.0000 O   0  0  0  0  0  0  0  0  0  0  0  0
    8.3771   -3.8447    0.0000 C   0  0  0  0  0  0  0  0  0  0  0  0
    9.0916   -4.2572    0.0000 C   0  0  0  0  0  0  0  0  0  0  0  0
    9.8060   -3.8447    0.0000 C   0  0  0  0  0  0  0  0  0  0  0  0
   10.5205   -4.2572    0.0000 O   0  0  0  0  0  0  0  0  0  0  0  0
    9.8060   -3.0197    0.0000 C   0  0  0  0  0  0  0  0  0  0  0  0
   10.5205   -2.6072    0.0000 O   0  0  0  0  0  0  0  0  0  0  0  0
    9.0916   -2.6072    0.0000 C   0  0  0  0  0  0  0  0  0  0  0  0
    8.3771   -3.0197    0.0000 C   0  0  0  0  0  0  0  0  0  0  0  0
    8.3771   -5.4947    0.0000 O   0  0  0  0  0  0  0  0  0  0  0  0
    8.3771   -6.3197    0.0000 C   0  0  1  0  0  0  0  0  0  0  0  0
    9.0916   -6.7322    0.0000 C   0  0  2  0  0  0  0  0  0  0  0  0
    9.8060   -6.3197    0.0000 O   0  0  0  0  0  0  0  0  0  0  0  0
    9.0916   -7.5572    0.0000 C   0  0  1  0  0  0  0  0  0  0  0  0
    9.8060   -7.9697    0.0000 O   0  0  0  0  0  0  0  0  0  0  0  0
    8.3771   -7.9697    0.0000 C   0  0  1  0  0  0  0  0  0  0  0  0
    8.3771   -8.7947    0.0000 O   0  0  0  0  0  0  0  0  0  0  0  0
    7.6626   -7.5572    0.0000 C   0  0  2  0  0  0  0  0  0  0  0  0
    7.6626   -6.7322    0.0000 O   0  0  0  0  0  0  0  0  0  0  0  0
    6.9481   -7.9697    0.0000 C   0  0  0  0  0  0  0  0  0  0  0  0
    6.2337   -7.5572    0.0000 O   0  0  0  0  0  0  0  0  0  0  0  0
    5.5192   -7.9697    0.0000 C   0  0  1  0  0  0  0  0  0  0  0  0
    5.5192   -8.7947    0.0000 C   0  0  2  0  0  0  0  0  0  0  0  0
    6.2337   -9.2072    0.0000 O   0  0  0  0  0  0  0  0  0  0  0  0
    4.8047   -9.2072    0.0000 C   0  0  2  0  0  0  0  0  0  0  0  0
    4.8047  -10.0322    0.0000 O   0  0  0  0  0  0  0  0  0  0  0  0
    4.0903   -8.7947    0.0000 C   0  0  1  0  0  0  0  0  0  0  0  0
    3.3758   -9.2072    0.0000 O   0  0  0  0  0  0  0  0  0  0  0  0
    4.0903   -7.9697    0.0000 C   0  0  1  0  0  0  0  0  0  0  0  0
    4.8047   -7.5572    0.0000 O   0  0  0  0  0  0  0  0  0  0  0  0
    3.3758   -7.5572    0.0000 C   0  0  0  0  0  0  0  0  0  0  0  0
    5.5082  -10.4544    0.0000 C   0  0  0  0  0  0  0  0  0  0  0  0
    5.5079  -11.2794    0.0000 C   0  0  0  0  0  0  0  0  0  0  0  0
    6.2223  -11.6921    0.0000 C   0  0  0  0  0  0  0  0  0  0  0  0
    6.2220  -12.5171    0.0000 C   0  0  0  0  0  0  0  0  0  0  0  0
    5.5074  -12.9294    0.0000 C   0  0  0  0  0  0  0  0  0  0  0  0
    5.5071  -13.7544    0.0000 C   0  0  0  0  0  0  0  0  0  0  0  0
    6.2214  -14.1671    0.0000 C   0  0  0  0  0  0  0  0  0  0  0  0
    6.9360  -13.7548    0.0000 C   0  0  0  0  0  0  0  0  0  0  0  0
    6.9363  -12.9298    0.0000 C   0  0  0  0  0  0  0  0  0  0  0  0
    6.2211  -14.9921    0.0000 O   0  0  0  0  0  0  0  0  0  0  0  0
    4.7925  -14.1666    0.0000 O   0  0  0  0  0  0  0  0  0  0  0  0
    6.2228  -10.0421    0.0000 O   0  0  0  0  0  0  0  0  0  0  0  0
  1  2  2  0  0  0  0
  2  3  1  0  0  0  0
  3  4  2  0  0  0  0
  3  5  1  0  0  0  0
  5  6  1  0  0  0  0
  6  7  1  0  0  0  0
  6  8  2  0  0  0  0
  8  9  1  0  0  0  0
  9 10  1  0  0  0  0
  9 11  2  0  0  0  0
 11 12  1  0  0  0  0
  5 12  2  0  0  0  0
 12 13  1  0  0  0  0
  1 13  1  0  0  0  0
  1 14  1  0  0  0  0
 14 15  1  0  0  0  0
 15 16  2  0  0  0  0
 16 17  1  0  0  0  0
 16 18  1  0  0  0  0
 18 19  1  0  0  0  0
 18 20  2  0  0  0  0
 20 21  1  0  0  0  0
 14 21  2  0  0  0  0
 23 22  1  1  0  0  0
 23 24  1  0  0  0  0
 24 25  1  6  0  0  0
 24 26  1  0  0  0  0
 26 27  1  1  0  0  0
 26 28  1  0  0  0  0
 28 29  1  1  0  0  0
 28 30  1  0  0  0  0
 30 31  1  0  0  0  0
 30 32  1  1  0  0  0
 32 33  1  0  0  0  0
 23 31  1  0  0  0  0
 34 35  1  0  0  0  0
 35 36  1  6  0  0  0
 35 37  1  0  0  0  0
 37 38  1  6  0  0  0
 37 39  1  0  0  0  0
 39 40  1  1  0  0  0
 39 41  1  0  0  0  0
 41 42  1  0  0  0  0
 41 43  1  6  0  0  0
 34 42  1  0  0  0  0
 34 33  1  1  0  0  0
  2 22  1  0  0  0  0
 44 45  1  0  0  0  0
 45 46  1  0  0  0  0
 46 47  1  0  0  0  0
 47 48  2  0  0  0  0
 48 49  1  0  0  0  0
 49 50  2  0  0  0  0
 50 51  1  0  0  0  0
 51 52  2  0  0  0  0
 52 47  1  0  0  0  0
 50 53  1  0  0  0  0
 49 54  1  0  0  0  0
 44 55  2  0  0  0  0
 44 38  1  0  0  0  0
M  END
>  <cdx:fragmentId>
47

$$$$
