98930.cdx
  Mrv1902 05222410262D          

 26 28  0  0  0  0            999 V2000
    7.3450   -8.1013    0.0000 C   0  0  0  0  0  0  0  0  0  0  0  0
    7.3450   -8.9263    0.0000 C   0  0  0  0  0  0  0  0  0  0  0  0
    6.6305   -9.3388    0.0000 C   0  0  0  0  0  0  0  0  0  0  0  0
    6.6305  -10.1638    0.0000 O   0  0  0  0  0  0  0  0  0  0  0  0
    5.9160   -8.9263    0.0000 C   0  0  0  0  0  0  0  0  0  0  0  0
    5.2016   -9.3388    0.0000 C   0  0  0  0  0  0  0  0  0  0  0  0
    4.4871   -8.9263    0.0000 C   0  0  0  0  0  0  0  0  0  0  0  0
    4.4871   -8.1013    0.0000 C   0  0  0  0  0  0  0  0  0  0  0  0
    5.2016   -7.6888    0.0000 C   0  0  0  0  0  0  0  0  0  0  0  0
    5.9160   -8.1013    0.0000 C   0  0  0  0  0  0  0  0  0  0  0  0
    6.6305   -7.6888    0.0000 O   0  0  0  0  0  0  0  0  0  0  0  0
    8.7745   -8.9125    0.0000 C   0  0  0  0  0  0  0  0  0  0  0  0
    8.7745   -8.0875    0.0000 C   0  0  0  0  0  0  0  0  0  0  0  0
    9.4889   -7.6750    0.0000 C   0  0  0  0  0  0  0  0  0  0  0  0
   10.2034   -8.0875    0.0000 C   0  0  0  0  0  0  0  0  0  0  0  0
   10.2034   -8.9125    0.0000 C   0  0  0  0  0  0  0  0  0  0  0  0
    9.4889   -9.3250    0.0000 C   0  0  0  0  0  0  0  0  0  0  0  0
    3.7726   -9.3388    0.0000 C   0  0  0  0  0  0  0  0  0  0  0  0
   10.9179   -7.6750    0.0000 O   0  0  0  0  0  0  0  0  0  0  0  0
   11.6323   -8.0875    0.0000 C   0  0  0  0  0  0  0  0  0  0  0  0
    5.2016  -10.1638    0.0000 O   0  0  0  0  0  0  0  0  0  0  0  0
    4.4871  -10.5763    0.0000 C   0  0  0  0  0  0  0  0  0  0  0  0
    3.7726   -7.6888    0.0000 O   0  0  0  0  0  0  0  0  0  0  0  0
    5.2016   -6.8638    0.0000 C   0  0  0  0  0  0  0  0  0  0  0  0
    4.4871   -6.4513    0.0000 O   0  0  0  0  0  0  0  0  0  0  0  0
    8.0595   -9.3388    0.0000 C   0  0  0  0  0  0  0  0  0  0  0  0
  1  2  2  0  0  0  0
  2  3  1  0  0  0  0
  3  4  2  0  0  0  0
  3  5  1  0  0  0  0
  5  6  1  0  0  0  0
  6  7  2  0  0  0  0
  7  8  1  0  0  0  0
  8  9  2  0  0  0  0
  9 10  1  0  0  0  0
  5 10  2  0  0  0  0
 10 11  1  0  0  0  0
  1 11  1  0  0  0  0
 12 13  1  0  0  0  0
 13 14  2  0  0  0  0
 14 15  1  0  0  0  0
 15 16  2  0  0  0  0
 16 17  1  0  0  0  0
 12 17  2  0  0  0  0
  7 18  1  0  0  0  0
 19 20  1  0  0  0  0
 15 19  1  0  0  0  0
 21 22  1  0  0  0  0
  6 21  1  0  0  0  0
  8 23  1  0  0  0  0
 24 25  2  0  0  0  0
  9 24  1  0  0  0  0
  2 26  1  0  0  0  0
 26 12  1  0  0  0  0
M  END
>  <cdx:fragmentId>
5

$$$$
