98933.cdx
  Mrv1902 05222410262D          

 24 26  0  0  0  0            999 V2000
    4.6747   -9.0750    0.0000 O   0  0  0  0  0  0  0  0  0  0  0  0
    5.3891  -10.3125    0.0000 O   0  0  0  0  0  0  0  0  0  0  0  0
    8.2470  -10.3125    0.0000 O   0  0  0  0  0  0  0  0  0  0  0  0
    6.8181  -11.1375    0.0000 O   0  0  0  0  0  0  0  0  0  0  0  0
    5.3891   -8.6625    0.0000 C   0  0  0  0  0  0  0  0  0  0  0  0
    6.8181   -8.6625    0.0000 O   0  0  0  0  0  0  0  0  0  0  0  0
    6.1036   -9.0750    0.0000 C   0  0  1  0  0  0  0  0  0  0  0  0
    6.1036   -9.9000    0.0000 C   0  0  2  0  0  0  0  0  0  0  0  0
    6.8181  -10.3125    0.0000 C   0  0  1  0  0  0  0  0  0  0  0  0
    7.5325   -9.9000    0.0000 C   0  0  2  0  0  0  0  0  0  0  0  0
    7.5325   -9.0750    0.0000 C   0  0  2  0  0  0  0  0  0  0  0  0
    8.2452   -8.6580    0.0000 O   0  0  0  0  0  0  0  0  0  0  0  0
    7.8327   -7.9435    0.0000 H   0  0  0  0  0  0  0  0  0  0  0  0
    9.8671   -8.4444    0.0000 C   0  0  0  0  0  0  0  0  0  0  0  0
    8.4588   -5.6071    0.0000 C   0  0  0  0  0  0  0  0  0  0  0  0
    9.6255   -5.6071    0.0000 C   0  0  0  0  0  0  0  0  0  0  0  0
    9.0421   -6.1905    0.0000 C   0  0  0  0  0  0  0  0  0  0  0  0
    9.4546   -6.9050    0.0000 O   0  0  0  0  0  0  0  0  0  0  0  0
    9.0421   -7.0155    0.0000 C   0  0  0  0  0  0  0  0  0  0  0  0
    8.2452   -7.2290    0.0000 C   0  0  0  0  0  0  0  0  0  0  0  0
    9.8390   -7.2290    0.0000 C   0  0  0  0  0  0  0  0  0  0  0  0
    8.6577   -7.9435    0.0000 C   0  0  1  0  0  0  0  0  0  0  0  0
    9.4546   -7.7300    0.0000 C   0  0  0  0  0  0  0  0  0  0  0  0
   10.2515   -7.9435    0.0000 C   0  0  0  0  0  0  0  0  0  0  0  0
 11 12  1  1  0  0  0
  5  1  1  0  0  0  0
  8  2  1  6  0  0  0
 10  3  1  6  0  0  0
  9  4  1  1  0  0  0
  7  5  1  1  0  0  0
  6 11  1  0  0  0  0
  7  6  1  0  0  0  0
  8  7  1  0  0  0  0
  9  8  1  0  0  0  0
 10  9  1  0  0  0  0
 11 10  1  0  0  0  0
 22 12  1  1  0  0  0
 22 13  1  6  0  0  0
 23 14  1  0  0  0  0
 17 15  1  0  0  0  0
 17 16  1  0  0  0  0
 17 18  1  0  0  0  0
 19 17  1  0  0  0  0
 23 18  1  0  0  0  0
 19 20  1  0  0  0  0
 21 19  1  0  0  0  0
 22 20  1  0  0  0  0
 24 21  1  0  0  0  0
 23 22  1  0  0  0  0
 24 23  1  0  0  0  0
M  END
>  <cdx:fragmentId>
802

$$$$
