98941.cdx
  Mrv1902 05222410252D          

 29 30  0  0  0  0            999 V2000
    6.9751   -8.1783    0.0000 O   0  0  0  0  0  0  0  0  0  0  0  0
    7.6895   -8.5908    0.0000 C   0  0  2  0  0  0  0  0  0  0  0  0
    7.6895   -9.4158    0.0000 C   0  0  1  0  0  0  0  0  0  0  0  0
    6.9751   -9.8283    0.0000 C   0  0  2  0  0  0  0  0  0  0  0  0
    6.2606   -9.4158    0.0000 C   0  0  1  0  0  0  0  0  0  0  0  0
    6.2606   -8.5908    0.0000 C   0  0  1  0  0  0  0  0  0  0  0  0
    8.4040   -9.8283    0.0000 O   0  0  0  0  0  0  0  0  0  0  0  0
    6.9751  -10.6533    0.0000 O   0  0  0  0  0  0  0  0  0  0  0  0
    5.5461   -9.8283    0.0000 O   0  0  0  0  0  0  0  0  0  0  0  0
    5.5461   -8.1783    0.0000 C   0  0  0  0  0  0  0  0  0  0  0  0
    4.8316   -8.5908    0.0000 O   0  0  0  0  0  0  0  0  0  0  0  0
    8.4040   -8.1783    0.0000 O   0  0  0  0  0  0  0  0  0  0  0  0
    9.1185   -8.5908    0.0000 C   0  0  0  0  0  0  0  0  0  0  0  0
    9.8329   -8.1783    0.0000 C   0  0  0  0  0  0  0  0  0  0  0  0
   10.5474   -8.5908    0.0000 C   0  0  0  0  0  0  0  0  0  0  0  0
   11.2619   -8.1783    0.0000 C   0  0  0  0  0  0  0  0  0  0  0  0
   11.9764   -8.5908    0.0000 C   0  0  0  0  0  0  0  0  0  0  0  0
   12.6908   -8.1783    0.0000 C   0  0  0  0  0  0  0  0  0  0  0  0
    3.4189   -6.9404    0.0000 C   0  0  2  0  0  0  0  0  0  0  0  0
    2.7006   -7.3463    0.0000 C   0  0  2  0  0  0  0  0  0  0  0  0
    2.6930   -8.1713    0.0000 C   0  0  1  0  0  0  0  0  0  0  0  0
    3.4036   -8.5904    0.0000 C   0  0  2  0  0  0  0  0  0  0  0  0
    4.1219   -8.1845    0.0000 C   0  0  1  0  0  0  0  0  0  0  0  0
    4.1295   -7.3595    0.0000 O   0  0  0  0  0  0  0  0  0  0  0  0
    3.4265   -6.1155    0.0000 C   0  0  0  0  0  0  0  0  0  0  0  0
    1.9747   -8.5771    0.0000 O   0  0  0  0  0  0  0  0  0  0  0  0
    1.9900   -6.9272    0.0000 O   0  0  0  0  0  0  0  0  0  0  0  0
    3.3959   -9.4153    0.0000 O   0  0  0  0  0  0  0  0  0  0  0  0
    2.7159   -5.6964    0.0000 O   0  0  0  0  0  0  0  0  0  0  0  0
  1  2  1  0  0  0  0
  2  3  1  0  0  0  0
  3  4  1  0  0  0  0
  4  5  1  0  0  0  0
  5  6  1  0  0  0  0
  1  6  1  0  0  0  0
  3  7  1  6  0  0  0
  4  8  1  1  0  0  0
  5  9  1  6  0  0  0
 10 11  1  0  0  0  0
  6 10  1  1  0  0  0
 13 14  1  0  0  0  0
 14 15  1  0  0  0  0
 15 16  1  0  0  0  0
 16 17  1  0  0  0  0
 17 18  1  0  0  0  0
 12 13  1  0  0  0  0
  2 12  1  1  0  0  0
 19 20  1  0  0  0  0
 20 21  1  0  0  0  0
 21 22  1  0  0  0  0
 22 23  1  0  0  0  0
 23 24  1  0  0  0  0
 24 19  1  0  0  0  0
 19 25  1  1  0  0  0
 21 26  1  1  0  0  0
 20 27  1  6  0  0  0
 22 28  1  6  0  0  0
 25 29  1  0  0  0  0
 23 11  1  1  0  0  0
M  END
>  <cdx:fragmentId>
5

$$$$
