98946.cdx
  Mrv1902 05222410232D          

 51 56  0  0  0  0            999 V2000
    7.2916   -6.3197    0.0000 C   0  0  0  0  0  0  0  0  0  0  0  0
    7.2916   -7.1447    0.0000 C   0  0  0  0  0  0  0  0  0  0  0  0
    6.5772   -7.5572    0.0000 C   0  0  0  0  0  0  0  0  0  0  0  0
    6.5772   -8.3822    0.0000 O   0  0  0  0  0  0  0  0  0  0  0  0
    5.8627   -7.1447    0.0000 C   0  0  0  0  0  0  0  0  0  0  0  0
    5.1482   -7.5572    0.0000 C   0  0  0  0  0  0  0  0  0  0  0  0
    5.1482   -8.3822    0.0000 O   0  0  0  0  0  0  0  0  0  0  0  0
    4.4338   -7.1447    0.0000 C   0  0  0  0  0  0  0  0  0  0  0  0
    4.4338   -6.3197    0.0000 C   0  0  0  0  0  0  0  0  0  0  0  0
    3.7193   -5.9072    0.0000 O   0  0  0  0  0  0  0  0  0  0  0  0
    5.1482   -5.9072    0.0000 C   0  0  0  0  0  0  0  0  0  0  0  0
    5.8627   -6.3197    0.0000 C   0  0  0  0  0  0  0  0  0  0  0  0
    6.5772   -5.9072    0.0000 O   0  0  0  0  0  0  0  0  0  0  0  0
    8.0061   -5.9072    0.0000 C   0  0  0  0  0  0  0  0  0  0  0  0
    8.0061   -5.0822    0.0000 C   0  0  0  0  0  0  0  0  0  0  0  0
    8.7206   -4.6697    0.0000 C   0  0  0  0  0  0  0  0  0  0  0  0
    9.4350   -5.0822    0.0000 C   0  0  0  0  0  0  0  0  0  0  0  0
   10.1495   -4.6697    0.0000 O   0  0  0  0  0  0  0  0  0  0  0  0
    9.4350   -5.9072    0.0000 C   0  0  0  0  0  0  0  0  0  0  0  0
    8.7206   -6.3197    0.0000 C   0  0  0  0  0  0  0  0  0  0  0  0
    8.0061   -7.5572    0.0000 O   0  0  0  0  0  0  0  0  0  0  0  0
    8.0061   -8.3822    0.0000 C   0  0  1  0  0  0  0  0  0  0  0  0
    8.7206   -8.7947    0.0000 C   0  0  2  0  0  0  0  0  0  0  0  0
    9.4350   -8.3822    0.0000 O   0  0  0  0  0  0  0  0  0  0  0  0
    8.7206   -9.6197    0.0000 C   0  0  1  0  0  0  0  0  0  0  0  0
    9.4350  -10.0322    0.0000 O   0  0  0  0  0  0  0  0  0  0  0  0
    8.0061  -10.0322    0.0000 C   0  0  2  0  0  0  0  0  0  0  0  0
    8.0061  -10.8572    0.0000 O   0  0  0  0  0  0  0  0  0  0  0  0
    7.2916   -9.6197    0.0000 C   0  0  2  0  0  0  0  0  0  0  0  0
    7.2916   -8.7947    0.0000 O   0  0  0  0  0  0  0  0  0  0  0  0
    6.5772  -10.0322    0.0000 C   0  0  0  0  0  0  0  0  0  0  0  0
    5.8627   -9.6197    0.0000 O   0  0  0  0  0  0  0  0  0  0  0  0
    3.7174  -10.0322    0.0000 C   0  0  1  0  0  0  0  0  0  0  0  0
    3.7174  -10.8572    0.0000 C   0  0  1  0  0  0  0  0  0  0  0  0
    4.4319  -11.2697    0.0000 C   0  0  2  0  0  0  0  0  0  0  0  0
    5.1464  -10.8572    0.0000 C   0  0  2  0  0  0  0  0  0  0  0  0
    5.1464  -10.0322    0.0000 C   0  0  1  0  0  0  0  0  0  0  0  0
    4.4319   -9.6197    0.0000 O   0  0  0  0  0  0  0  0  0  0  0  0
    3.0030  -11.2697    0.0000 O   0  0  0  0  0  0  0  0  0  0  0  0
    3.0030   -9.6197    0.0000 C   0  0  0  0  0  0  0  0  0  0  0  0
    4.4319  -12.0947    0.0000 O   0  0  0  0  0  0  0  0  0  0  0  0
    5.8608  -11.2697    0.0000 O   0  0  0  0  0  0  0  0  0  0  0  0
   10.1495   -8.7947    0.0000 C   0  0  2  0  0  0  0  0  0  0  0  0
   10.2358   -9.6152    0.0000 O   0  0  0  0  0  0  0  0  0  0  0  0
   11.0427   -9.7867    0.0000 C   0  0  0  0  0  0  0  0  0  0  0  0
   11.4552   -9.0723    0.0000 C   0  0  2  0  0  0  0  0  0  0  0  0
   10.9032   -8.4592    0.0000 C   0  0  1  0  0  0  0  0  0  0  0  0
   11.0747   -7.6522    0.0000 O   0  0  0  0  0  0  0  0  0  0  0  0
   12.1697   -8.6598    0.0000 O   0  0  0  0  0  0  0  0  0  0  0  0
   12.1697   -9.4848    0.0000 C   0  0  0  0  0  0  0  0  0  0  0  0
   12.8842   -9.0723    0.0000 O   0  0  0  0  0  0  0  0  0  0  0  0
  1  2  2  0  0  0  0
  2  3  1  0  0  0  0
  3  4  2  0  0  0  0
  3  5  1  0  0  0  0
  5  6  1  0  0  0  0
  6  7  1  0  0  0  0
  6  8  2  0  0  0  0
  8  9  1  0  0  0  0
  9 10  1  0  0  0  0
  9 11  2  0  0  0  0
 11 12  1  0  0  0  0
  5 12  2  0  0  0  0
 12 13  1  0  0  0  0
  1 13  1  0  0  0  0
  1 14  1  0  0  0  0
 14 15  1  0  0  0  0
 15 16  2  0  0  0  0
 16 17  1  0  0  0  0
 17 18  1  0  0  0  0
 17 19  2  0  0  0  0
 19 20  1  0  0  0  0
 14 20  2  0  0  0  0
 22 21  1  1  0  0  0
 22 23  1  0  0  0  0
 23 24  1  6  0  0  0
 23 25  1  0  0  0  0
 25 26  1  1  0  0  0
 25 27  1  0  0  0  0
 27 28  1  6  0  0  0
 27 29  1  0  0  0  0
 29 30  1  0  0  0  0
 29 31  1  1  0  0  0
 31 32  1  0  0  0  0
 22 30  1  0  0  0  0
  2 21  1  0  0  0  0
 33 34  1  0  0  0  0
 34 35  1  0  0  0  0
 35 36  1  0  0  0  0
 36 37  1  0  0  0  0
 37 38  1  0  0  0  0
 38 33  1  0  0  0  0
 34 39  1  1  0  0  0
 33 40  1  6  0  0  0
 35 41  1  6  0  0  0
 36 42  1  6  0  0  0
 37 32  1  1  0  0  0
 43 24  1  1  0  0  0
 43 44  1  0  0  0  0
 44 45  1  0  0  0  0
 45 46  1  0  0  0  0
 46 47  1  0  0  0  0
 47 43  1  0  0  0  0
 47 48  1  6  0  0  0
 46 49  1  6  0  0  0
 46 50  1  0  0  0  0
 50 51  1  0  0  0  0
M  END
>  <cdx:fragmentId>
5

$$$$
