98949.cdx
  Mrv1902 05222410222D          

 30 33  0  0  0  0            999 V2000
   10.5502  -11.2629    0.0000 O   0  0  0  0  0  0  0  0  0  0  0  0
    9.1212   -9.6129    0.0000 C   0  0  0  0  0  0  0  0  0  0  0  0
    9.8357  -10.0254    0.0000 C   0  0  0  0  0  0  0  0  0  0  0  0
    9.8357  -10.8504    0.0000 C   0  0  0  0  0  0  0  0  0  0  0  0
    9.1212  -11.2629    0.0000 C   0  0  0  0  0  0  0  0  0  0  0  0
    8.4068  -10.8504    0.0000 C   0  0  0  0  0  0  0  0  0  0  0  0
    8.4068  -10.0254    0.0000 C   0  0  0  0  0  0  0  0  0  0  0  0
    7.6923   -9.6129    0.0000 C   0  0  0  0  0  0  0  0  0  0  0  0
    4.1199   -8.3754    0.0000 C   0  0  0  0  0  0  0  0  0  0  0  0
    4.8344   -8.7879    0.0000 O   0  0  0  0  0  0  0  0  0  0  0  0
    4.8344   -7.1379    0.0000 O   0  0  0  0  0  0  0  0  0  0  0  0
    6.9778   -8.3754    0.0000 C   0  0  0  0  0  0  0  0  0  0  0  0
    6.2634   -8.7879    0.0000 C   0  0  0  0  0  0  0  0  0  0  0  0
    5.5489   -8.3754    0.0000 C   0  0  0  0  0  0  0  0  0  0  0  0
    5.5489   -7.5504    0.0000 C   0  0  0  0  0  0  0  0  0  0  0  0
    6.2634   -7.1379    0.0000 C   0  0  0  0  0  0  0  0  0  0  0  0
    6.9778   -7.5504    0.0000 C   0  0  0  0  0  0  0  0  0  0  0  0
    7.6923   -7.1379    0.0000 C   0  0  0  0  0  0  0  0  0  0  0  0
    8.4068   -7.5504    0.0000 C   0  0  0  0  0  0  0  0  0  0  0  0
    8.4068   -8.3754    0.0000 N   0  3  0  0  0  0  0  0  0  0  0  0
    7.6923   -8.7879    0.0000 C   0  0  0  0  0  0  0  0  0  0  0  0
    4.8344   -6.3129    0.0000 C   0  0  0  0  0  0  0  0  0  0  0  0
    5.5489   -5.9004    0.0000 O   0  0  0  0  0  0  0  0  0  0  0  0
    5.5489   -5.0754    0.0000 C   0  0  0  0  0  0  0  0  0  0  0  0
    4.8344   -4.6629    0.0000 C   0  0  0  0  0  0  0  0  0  0  0  0
    4.1199   -5.0754    0.0000 C   0  0  0  0  0  0  0  0  0  0  0  0
    4.1199   -5.9004    0.0000 C   0  0  0  0  0  0  0  0  0  0  0  0
    3.4055   -6.3129    0.0000 O   0  0  0  0  0  0  0  0  0  0  0  0
    3.4055   -4.6629    0.0000 O   0  0  0  0  0  0  0  0  0  0  0  0
    4.8344   -3.8379    0.0000 O   0  0  0  0  0  0  0  0  0  0  0  0
 21  8  1  0  0  0  0
  8  7  1  0  0  0  0
  4  1  1  0  0  0  0
  7  2  2  0  0  0  0
  3  2  1  0  0  0  0
  4  3  2  0  0  0  0
  5  4  1  0  0  0  0
  6  5  2  0  0  0  0
  7  6  1  0  0  0  0
 14 10  1  0  0  0  0
 10  9  1  0  0  0  0
 15 11  1  0  0  0  0
 17 12  2  0  0  0  0
 21 12  1  0  0  0  0
 13 12  1  0  0  0  0
 14 13  2  0  0  0  0
 15 14  1  0  0  0  0
 16 15  2  0  0  0  0
 17 16  1  0  0  0  0
 18 17  1  0  0  0  0
 19 18  1  0  0  0  0
 20 19  1  0  0  0  0
 21 20  1  0  0  0  0
 11 22  1  0  0  0  0
 22 23  1  0  0  0  0
 23 24  1  0  0  0  0
 24 25  1  0  0  0  0
 25 26  1  0  0  0  0
 26 27  1  0  0  0  0
 27 22  1  0  0  0  0
 27 28  1  0  0  0  0
 26 29  1  0  0  0  0
 25 30  1  0  0  0  0
M  CHG  1  20   1
M  END
>  <cdx:fragmentId>
5

$$$$
