98944.cdx
  Mrv1902 05222410242D          

 51 54  0  0  0  0            999 V2000
    6.5450   -4.5375    0.0000 C   0  0  0  0  0  0  0  0  0  0  0  0
    7.2595   -4.1250    0.0000 C   0  0  0  0  0  0  0  0  0  0  0  0
    5.8305   -4.1250    0.0000 N   0  0  0  0  0  0  0  0  0  0  0  0
    6.5450   -5.3625    0.0000 O   0  0  0  0  0  0  0  0  0  0  0  0
    8.0131   -4.4606    0.0000 N   0  0  0  0  0  0  0  0  0  0  0  0
    8.5652   -3.8475    0.0000 C   0  0  0  0  0  0  0  0  0  0  0  0
    8.1527   -3.1330    0.0000 C   0  0  0  0  0  0  0  0  0  0  0  0
    7.3457   -3.3045    0.0000 C   0  0  0  0  0  0  0  0  0  0  0  0
    6.5043   -3.6490    0.0000 C   0  0  0  0  0  0  0  0  0  0  0  0
    6.2598   -2.8610    0.0000 C   0  0  0  0  0  0  0  0  0  0  0  0
    5.4349   -2.8501    0.0000 C   0  0  0  0  0  0  0  0  0  0  0  0
    5.1696   -3.6313    0.0000 C   0  0  0  0  0  0  0  0  0  0  0  0
    8.1847   -5.2675    0.0000 C   0  0  0  0  0  0  0  0  0  0  0  0
    7.5716   -5.8196    0.0000 O   0  0  0  0  0  0  0  0  0  0  0  0
    8.9693   -5.5225    0.0000 C   0  0  1  0  0  0  0  0  0  0  0  0
    9.5824   -4.9704    0.0000 C   0  0  0  0  0  0  0  0  0  0  0  0
   10.3670   -5.2254    0.0000 C   0  0  0  0  0  0  0  0  0  0  0  0
   10.9801   -4.6733    0.0000 C   0  0  0  0  0  0  0  0  0  0  0  0
   10.5385   -6.0323    0.0000 C   0  0  0  0  0  0  0  0  0  0  0  0
    9.1408   -6.3294    0.0000 N   0  0  0  0  0  0  0  0  0  0  0  0
    8.5277   -6.8815    0.0000 C   0  0  0  0  0  0  0  0  0  0  0  0
    8.6993   -7.6884    0.0000 C   0  0  2  0  0  0  0  0  0  0  0  0
    7.7431   -6.6265    0.0000 O   0  0  0  0  0  0  0  0  0  0  0  0
    8.0862   -8.2405    0.0000 N   0  0  0  0  0  0  0  0  0  0  0  0
    9.4839   -7.9434    0.0000 C   0  0  0  0  0  0  0  0  0  0  0  0
    9.6974   -8.7403    0.0000 O   0  0  0  0  0  0  0  0  0  0  0  0
    7.3015   -7.9855    0.0000 C   0  0  0  0  0  0  0  0  0  0  0  0
    6.6884   -8.5376    0.0000 C   0  0  0  0  0  0  0  0  0  0  0  0
    7.1300   -7.1786    0.0000 O   0  0  0  0  0  0  0  0  0  0  0  0
    5.9038   -8.2826    0.0000 N   0  0  0  0  0  0  0  0  0  0  0  0
    5.6903   -7.4857    0.0000 C   0  0  0  0  0  0  0  0  0  0  0  0
    4.8934   -7.2722    0.0000 C   0  0  0  0  0  0  0  0  0  0  0  0
    6.2737   -6.9024    0.0000 O   0  0  0  0  0  0  0  0  0  0  0  0
    4.3100   -7.8556    0.0000 C   0  0  0  0  0  0  0  0  0  0  0  0
    4.6799   -6.4753    0.0000 N   0  0  0  0  0  0  0  0  0  0  0  0
    4.5236   -8.6525    0.0000 C   0  0  0  0  0  0  0  0  0  0  0  0
    3.9402   -9.2358    0.0000 C   0  0  0  0  0  0  0  0  0  0  0  0
    4.1537  -10.0327    0.0000 C   0  0  0  0  0  0  0  0  0  0  0  0
    4.9506  -10.2462    0.0000 C   0  0  0  0  0  0  0  0  0  0  0  0
    5.5340   -9.6629    0.0000 C   0  0  0  0  0  0  0  0  0  0  0  0
    5.3205   -8.8660    0.0000 C   0  0  0  0  0  0  0  0  0  0  0  0
    3.8830   -6.2618    0.0000 C   0  0  0  0  0  0  0  0  0  0  0  0
    3.6695   -5.4649    0.0000 C   0  0  2  0  0  0  0  0  0  0  0  0
    3.2996   -6.8452    0.0000 O   0  0  0  0  0  0  0  0  0  0  0  0
    4.2528   -4.8816    0.0000 N   0  0  0  0  0  0  0  0  0  0  0  0
    2.8726   -5.2514    0.0000 C   0  0  0  0  0  0  0  0  0  0  0  0
    2.2892   -5.8348    0.0000 C   0  0  0  0  0  0  0  0  0  0  0  0
    2.6591   -4.4545    0.0000 C   0  0  0  0  0  0  0  0  0  0  0  0
    1.4923   -5.6212    0.0000 C   0  0  0  0  0  0  0  0  0  0  0  0
    4.2350   -4.0425    0.0000 C   0  0  0  0  0  0  0  0  0  0  0  0
    3.5755   -3.6300    0.0000 O   0  0  0  0  0  0  0  0  0  0  0  0
  1  2  1  0  0  0  0
  1  3  1  0  0  0  0
  1  4  2  0  0  0  0
  2  5  1  0  0  0  0
  5  6  1  0  0  0  0
  6  7  1  0  0  0  0
  7  8  1  0  0  0  0
  8  2  1  1  0  0  0
  3  9  1  0  0  0  0
  9 10  1  0  0  0  0
 10 11  1  0  0  0  0
 11 12  1  1  0  0  0
 12  3  1  0  0  0  0
  5 13  1  0  0  0  0
 13 14  2  0  0  0  0
 13 15  1  0  0  0  0
 15 16  1  1  0  0  0
 16 17  1  0  0  0  0
 17 18  1  0  0  0  0
 17 19  1  0  0  0  0
 15 20  1  0  0  0  0
 20 21  1  0  0  0  0
 21 22  1  0  0  0  0
 21 23  2  0  0  0  0
 22 24  1  0  0  0  0
 22 25  1  1  0  0  0
 25 26  1  0  0  0  0
 24 27  1  0  0  0  0
 27 28  1  0  0  0  0
 27 29  2  0  0  0  0
 28 30  1  0  0  0  0
 30 31  1  0  0  0  0
 31 32  1  0  0  0  0
 31 33  2  0  0  0  0
 34 32  1  1  0  0  0
 32 35  1  0  0  0  0
 34 36  1  0  0  0  0
 36 37  2  0  0  0  0
 37 38  1  0  0  0  0
 38 39  2  0  0  0  0
 39 40  1  0  0  0  0
 40 41  2  0  0  0  0
 41 36  1  0  0  0  0
 35 42  1  0  0  0  0
 42 43  1  0  0  0  0
 42 44  2  0  0  0  0
 43 45  1  0  0  0  0
 43 46  1  1  0  0  0
 46 47  1  0  0  0  0
 46 48  1  0  0  0  0
 47 49  1  0  0  0  0
 45 50  1  0  0  0  0
 50 51  2  0  0  0  0
 12 50  1  0  0  0  0
M  END
>  <cdx:fragmentId>
296

$$$$
