98948.cdx
  Mrv1902 05222410222D          

 45 49  0  0  0  0            999 V2000
    1.3544  -10.7296    0.0000 O   0  0  0  0  0  0  0  0  0  0  0  0
   15.6438  -13.2046    0.0000 O   0  0  0  0  0  0  0  0  0  0  0  0
   14.9293   -7.8421    0.0000 C   0  0  0  0  0  0  0  0  0  0  0  0
   14.2149   -8.2546    0.0000 O   0  0  0  0  0  0  0  0  0  0  0  0
   12.7859   -5.7796    0.0000 O   0  0  0  0  0  0  0  0  0  0  0  0
    2.7833   -9.0796    0.0000 C   0  0  0  0  0  0  0  0  0  0  0  0
    2.0689   -9.4921    0.0000 C   0  0  0  0  0  0  0  0  0  0  0  0
    2.0689  -10.3171    0.0000 C   0  0  0  0  0  0  0  0  0  0  0  0
    2.7833  -10.7296    0.0000 C   0  0  0  0  0  0  0  0  0  0  0  0
    4.2123   -9.0796    0.0000 C   0  0  0  0  0  0  0  0  0  0  0  0
    3.4978   -9.4921    0.0000 C   0  0  0  0  0  0  0  0  0  0  0  0
    3.4978  -10.3171    0.0000 C   0  0  0  0  0  0  0  0  0  0  0  0
    4.9267   -9.4921    0.0000 C   0  0  0  0  0  0  0  0  0  0  0  0
    6.3557  -10.3171    0.0000 O   0  0  0  0  0  0  0  0  0  0  0  0
    5.6412   -9.0796    0.0000 N   0  0  0  0  0  0  0  0  0  0  0  0
    6.3557   -9.4921    0.0000 C   0  0  0  0  0  0  0  0  0  0  0  0
    7.0702   -9.0796    0.0000 C   0  0  0  0  0  0  0  0  0  0  0  0
    7.7846   -9.4921    0.0000 C   0  0  0  0  0  0  0  0  0  0  0  0
   13.5004  -12.7921    0.0000 C   0  0  0  0  0  0  0  0  0  0  0  0
   14.2149  -13.2046    0.0000 C   0  0  0  0  0  0  0  0  0  0  0  0
   14.9293  -12.7921    0.0000 C   0  0  0  0  0  0  0  0  0  0  0  0
   14.9293  -11.9671    0.0000 C   0  0  0  0  0  0  0  0  0  0  0  0
   12.7859  -11.5546    0.0000 C   0  0  0  0  0  0  0  0  0  0  0  0
   13.5004  -11.9671    0.0000 C   0  0  0  0  0  0  0  0  0  0  0  0
   14.2149  -11.5546    0.0000 C   0  0  0  0  0  0  0  0  0  0  0  0
   12.0714  -10.3171    0.0000 N   0  0  0  0  0  0  0  0  0  0  0  0
   12.7859  -10.7296    0.0000 C   0  0  0  0  0  0  0  0  0  0  0  0
    9.2136   -7.8421    0.0000 C   0  0  0  0  0  0  0  0  0  0  0  0
    8.4991   -8.2546    0.0000 C   0  0  0  0  0  0  0  0  0  0  0  0
    8.4991   -9.0796    0.0000 C   0  0  0  0  0  0  0  0  0  0  0  0
    9.2136   -9.4921    0.0000 C   0  0  0  0  0  0  0  0  0  0  0  0
   10.6425   -7.8421    0.0000 O   0  0  0  0  0  0  0  0  0  0  0  0
    9.9280   -8.2546    0.0000 C   0  0  0  0  0  0  0  0  0  0  0  0
    9.9280   -9.0796    0.0000 C   0  0  0  0  0  0  0  0  0  0  0  0
   10.6425   -9.4921    0.0000 O   0  0  0  0  0  0  0  0  0  0  0  0
   11.3570   -8.2546    0.0000 C   0  0  1  0  0  0  0  0  0  0  0  0
   11.3570   -9.0796    0.0000 C   0  0  1  0  0  0  0  0  0  0  0  0
   12.0714   -9.4921    0.0000 C   0  0  0  0  0  0  0  0  0  0  0  0
   12.7859   -9.0796    0.0000 O   0  0  0  0  0  0  0  0  0  0  0  0
   12.7859   -6.6046    0.0000 C   0  0  0  0  0  0  0  0  0  0  0  0
   12.0714   -7.0171    0.0000 C   0  0  0  0  0  0  0  0  0  0  0  0
   12.0714   -7.8421    0.0000 C   0  0  0  0  0  0  0  0  0  0  0  0
   12.7859   -8.2546    0.0000 C   0  0  0  0  0  0  0  0  0  0  0  0
   13.5004   -7.8421    0.0000 C   0  0  0  0  0  0  0  0  0  0  0  0
   13.5004   -7.0171    0.0000 C   0  0  0  0  0  0  0  0  0  0  0  0
  8  1  1  0  0  0  0
 21  2  1  0  0  0  0
  4  3  1  0  0  0  0
 44  4  1  0  0  0  0
 40  5  1  0  0  0  0
  6 11  1  0  0  0  0
  7  6  2  0  0  0  0
  8  7  1  0  0  0  0
  9  8  2  0  0  0  0
 12  9  1  0  0  0  0
 10 13  1  0  0  0  0
 11 10  1  0  0  0  0
 12 11  2  0  0  0  0
 13 15  1  0  0  0  0
 16 14  2  0  0  0  0
 16 15  1  0  0  0  0
 17 16  1  0  0  0  0
 18 17  2  0  0  0  0
 30 18  1  0  0  0  0
 19 24  1  0  0  0  0
 20 19  2  0  0  0  0
 21 20  1  0  0  0  0
 22 21  2  0  0  0  0
 25 22  1  0  0  0  0
 23 27  1  0  0  0  0
 24 23  1  0  0  0  0
 25 24  2  0  0  0  0
 26 38  1  0  0  0  0
 27 26  1  0  0  0  0
 28 33  1  0  0  0  0
 29 28  2  0  0  0  0
 30 29  1  0  0  0  0
 31 30  2  0  0  0  0
 34 31  1  0  0  0  0
 32 36  1  0  0  0  0
 33 32  1  0  0  0  0
 34 33  2  0  0  0  0
 35 34  1  0  0  0  0
 37 35  1  0  0  0  0
 36 42  1  6  0  0  0
 37 36  1  0  0  0  0
 37 38  1  1  0  0  0
 39 38  2  0  0  0  0
 40 45  1  0  0  0  0
 41 40  2  0  0  0  0
 42 41  1  0  0  0  0
 43 42  2  0  0  0  0
 44 43  1  0  0  0  0
 45 44  2  0  0  0  0
M  END
>  <cdx:fragmentId>
5

$$$$
