98945.cdx
  Mrv1902 05222410242D          

 40 43  0  0  0  0            999 V2000
    6.6000   -6.3250    0.0000 C   0  0  0  0  0  0  0  0  0  0  0  0
    7.3145   -5.9125    0.0000 N   0  0  0  0  0  0  0  0  0  0  0  0
    5.8855   -5.9125    0.0000 C   0  0  2  0  0  0  0  0  0  0  0  0
    6.6000   -7.1500    0.0000 O   0  0  0  0  0  0  0  0  0  0  0  0
    8.0289   -6.3250    0.0000 C   0  0  0  0  0  0  0  0  0  0  0  0
    8.0289   -7.1500    0.0000 C   0  0  0  0  0  0  0  0  0  0  0  0
    8.7434   -7.5625    0.0000 N   0  0  0  0  0  0  0  0  0  0  0  0
    7.3145   -7.5625    0.0000 O   0  0  0  0  0  0  0  0  0  0  0  0
    8.7434   -8.3875    0.0000 C   0  0  1  0  0  0  0  0  0  0  0  0
    9.4579   -8.8000    0.0000 C   0  0  0  0  0  0  0  0  0  0  0  0
    8.0289   -8.8000    0.0000 C   0  0  0  0  0  0  0  0  0  0  0  0
   10.1724   -8.3875    0.0000 C   0  0  0  0  0  0  0  0  0  0  0  0
   10.8868   -8.8000    0.0000 C   0  0  0  0  0  0  0  0  0  0  0  0
   11.6013   -8.3875    0.0000 C   0  0  0  0  0  0  0  0  0  0  0  0
   11.6013   -7.5625    0.0000 C   0  0  0  0  0  0  0  0  0  0  0  0
   10.8868   -7.1500    0.0000 C   0  0  0  0  0  0  0  0  0  0  0  0
   10.1724   -7.5625    0.0000 C   0  0  0  0  0  0  0  0  0  0  0  0
    7.3145   -8.3875    0.0000 O   0  0  0  0  0  0  0  0  0  0  0  0
    8.0289   -9.6250    0.0000 N   0  0  0  0  0  0  0  0  0  0  0  0
    7.3145  -10.0375    0.0000 C   0  0  1  0  0  0  0  0  0  0  0  0
    7.3145  -10.8625    0.0000 C   0  0  0  0  0  0  0  0  0  0  0  0
    6.6000   -9.6250    0.0000 C   0  0  0  0  0  0  0  0  0  0  0  0
    6.6000  -11.2750    0.0000 C   0  0  0  0  0  0  0  0  0  0  0  0
    8.0289  -11.2750    0.0000 C   0  0  0  0  0  0  0  0  0  0  0  0
    5.8855  -10.0375    0.0000 N   0  0  0  0  0  0  0  0  0  0  0  0
    6.6000   -8.8000    0.0000 O   0  0  0  0  0  0  0  0  0  0  0  0
    5.1711   -9.6250    0.0000 C   0  0  1  0  0  0  0  0  0  0  0  0
    4.4566  -10.0375    0.0000 C   0  0  0  0  0  0  0  0  0  0  0  0
    4.4566  -10.8625    0.0000 C   0  0  0  0  0  0  0  0  0  0  0  0
    3.7421  -11.2750    0.0000 C   0  0  0  0  0  0  0  0  0  0  0  0
    3.7421  -12.1000    0.0000 C   0  0  0  0  0  0  0  0  0  0  0  0
    4.4566  -12.5125    0.0000 C   0  0  0  0  0  0  0  0  0  0  0  0
    5.1711  -12.1000    0.0000 C   0  0  0  0  0  0  0  0  0  0  0  0
    5.1711  -11.2750    0.0000 C   0  0  0  0  0  0  0  0  0  0  0  0
    5.7993   -5.0920    0.0000 C   0  0  0  0  0  0  0  0  0  0  0  0
    4.9923   -4.9205    0.0000 C   0  0  0  0  0  0  0  0  0  0  0  0
    4.5798   -5.6350    0.0000 C   0  0  0  0  0  0  0  0  0  0  0  0
    5.1319   -6.2481    0.0000 N   0  0  0  0  0  0  0  0  0  0  0  0
    4.5925   -7.9200    0.0000 C   0  0  0  0  0  0  0  0  0  0  0  0
    3.7675   -7.9200    0.0000 O   0  0  0  0  0  0  0  0  0  0  0  0
  1  2  1  0  0  0  0
  1  3  1  0  0  0  0
  1  4  2  0  0  0  0
  2  5  1  0  0  0  0
  5  6  1  0  0  0  0
  6  7  1  0  0  0  0
  6  8  2  0  0  0  0
  7  9  1  0  0  0  0
  9 10  1  1  0  0  0
  9 11  1  0  0  0  0
 10 12  1  0  0  0  0
 12 13  2  0  0  0  0
 13 14  1  0  0  0  0
 14 15  2  0  0  0  0
 15 16  1  0  0  0  0
 16 17  2  0  0  0  0
 17 12  1  0  0  0  0
 11 18  2  0  0  0  0
 11 19  1  0  0  0  0
 19 20  1  0  0  0  0
 20 21  1  1  0  0  0
 20 22  1  0  0  0  0
 21 23  1  0  0  0  0
 21 24  1  0  0  0  0
 22 25  1  0  0  0  0
 22 26  2  0  0  0  0
 25 27  1  0  0  0  0
 27 28  1  1  0  0  0
 28 29  1  0  0  0  0
 29 30  2  0  0  0  0
 30 31  1  0  0  0  0
 31 32  2  0  0  0  0
 32 33  1  0  0  0  0
 33 34  2  0  0  0  0
 34 29  1  0  0  0  0
  3 35  1  1  0  0  0
 35 36  1  0  0  0  0
 36 37  1  0  0  0  0
 37 38  1  0  0  0  0
 38  3  1  0  0  0  0
 38 39  1  0  0  0  0
 39 40  2  0  0  0  0
 39 27  1  0  0  0  0
M  END
>  <cdx:fragmentId>
220

$$$$
