98940.cdx
  Mrv1902 05222410252D          

 29 30  0  0  0  0            999 V2000
    6.1638   -5.8270    0.0000 O   0  0  0  0  0  0  0  0  0  0  0  0
    6.8783   -6.2395    0.0000 C   0  0  2  0  0  0  0  0  0  0  0  0
    6.8783   -7.0645    0.0000 C   0  0  1  0  0  0  0  0  0  0  0  0
    6.1638   -7.4770    0.0000 C   0  0  2  0  0  0  0  0  0  0  0  0
    5.4493   -7.0645    0.0000 C   0  0  1  0  0  0  0  0  0  0  0  0
    5.4493   -6.2395    0.0000 C   0  0  1  0  0  0  0  0  0  0  0  0
    7.5928   -7.4770    0.0000 O   0  0  0  0  0  0  0  0  0  0  0  0
    6.1638   -8.3020    0.0000 O   0  0  0  0  0  0  0  0  0  0  0  0
    4.7349   -7.4770    0.0000 O   0  0  0  0  0  0  0  0  0  0  0  0
    4.7349   -5.8270    0.0000 C   0  0  0  0  0  0  0  0  0  0  0  0
    4.0204   -6.2395    0.0000 O   0  0  0  0  0  0  0  0  0  0  0  0
    7.5928   -5.8270    0.0000 O   0  0  0  0  0  0  0  0  0  0  0  0
    8.3072   -6.2395    0.0000 C   0  0  0  0  0  0  0  0  0  0  0  0
    9.0217   -5.8270    0.0000 C   0  0  0  0  0  0  0  0  0  0  0  0
    9.7362   -6.2395    0.0000 C   0  0  0  0  0  0  0  0  0  0  0  0
   10.4506   -5.8270    0.0000 C   0  0  0  0  0  0  0  0  0  0  0  0
   11.1651   -6.2395    0.0000 C   0  0  0  0  0  0  0  0  0  0  0  0
   11.8796   -5.8270    0.0000 C   0  0  0  0  0  0  0  0  0  0  0  0
    6.8609   -9.5317    0.0000 C   0  0  2  0  0  0  0  0  0  0  0  0
    7.5715   -9.9508    0.0000 C   0  0  2  0  0  0  0  0  0  0  0  0
    8.2897   -9.5449    0.0000 C   0  0  1  0  0  0  0  0  0  0  0  0
    8.2974   -8.7199    0.0000 C   0  0  2  0  0  0  0  0  0  0  0  0
    7.5868   -8.3008    0.0000 C   0  0  1  0  0  0  0  0  0  0  0  0
    6.8685   -8.7067    0.0000 O   0  0  0  0  0  0  0  0  0  0  0  0
    6.1426   -9.9375    0.0000 C   0  0  0  0  0  0  0  0  0  0  0  0
    9.0004   -9.9640    0.0000 O   0  0  0  0  0  0  0  0  0  0  0  0
    7.5638  -10.7757    0.0000 O   0  0  0  0  0  0  0  0  0  0  0  0
    9.0156   -8.3141    0.0000 O   0  0  0  0  0  0  0  0  0  0  0  0
    6.1350  -10.7625    0.0000 O   0  0  0  0  0  0  0  0  0  0  0  0
  1  2  1  0  0  0  0
  2  3  1  0  0  0  0
  3  4  1  0  0  0  0
  4  5  1  0  0  0  0
  5  6  1  0  0  0  0
  1  6  1  0  0  0  0
  3  7  1  6  0  0  0
  4  8  1  1  0  0  0
  5  9  1  6  0  0  0
 10 11  1  0  0  0  0
  6 10  1  1  0  0  0
 13 14  1  0  0  0  0
 14 15  1  0  0  0  0
 15 16  1  0  0  0  0
 16 17  1  0  0  0  0
 17 18  1  0  0  0  0
 12 13  1  0  0  0  0
  2 12  1  1  0  0  0
 19 20  1  0  0  0  0
 20 21  1  0  0  0  0
 21 22  1  0  0  0  0
 22 23  1  0  0  0  0
 23 24  1  0  0  0  0
 24 19  1  0  0  0  0
 19 25  1  1  0  0  0
 21 26  1  1  0  0  0
 20 27  1  6  0  0  0
 22 28  1  6  0  0  0
 25 29  1  0  0  0  0
 23  7  1  1  0  0  0
M  END
>  <cdx:fragmentId>
5

$$$$
