98951.cdx
  Mrv1902 05222410242D          

 23 25  0  0  0  0            999 V2000
   10.0277  -11.6754    0.0000 O   0  0  0  0  0  0  0  0  0  0  0  0
    8.5987  -10.0254    0.0000 C   0  0  0  0  0  0  0  0  0  0  0  0
    9.3132  -10.4379    0.0000 C   0  0  0  0  0  0  0  0  0  0  0  0
    9.3132  -11.2629    0.0000 C   0  0  0  0  0  0  0  0  0  0  0  0
    8.5987  -11.6754    0.0000 C   0  0  0  0  0  0  0  0  0  0  0  0
    7.8843  -11.2629    0.0000 C   0  0  0  0  0  0  0  0  0  0  0  0
    7.8843  -10.4379    0.0000 C   0  0  0  0  0  0  0  0  0  0  0  0
    7.1698  -10.0254    0.0000 C   0  0  0  0  0  0  0  0  0  0  0  0
    4.3119   -9.2004    0.0000 O   0  0  0  0  0  0  0  0  0  0  0  0
    4.3119   -7.5504    0.0000 O   0  0  0  0  0  0  0  0  0  0  0  0
    6.4553   -8.7879    0.0000 C   0  0  0  0  0  0  0  0  0  0  0  0
    5.7409   -9.2004    0.0000 C   0  0  0  0  0  0  0  0  0  0  0  0
    5.0264   -8.7879    0.0000 C   0  0  0  0  0  0  0  0  0  0  0  0
    5.0264   -7.9629    0.0000 C   0  0  0  0  0  0  0  0  0  0  0  0
    5.7409   -7.5504    0.0000 C   0  0  0  0  0  0  0  0  0  0  0  0
    6.4553   -7.9629    0.0000 C   0  0  0  0  0  0  0  0  0  0  0  0
    7.1698   -7.5504    0.0000 C   0  0  0  0  0  0  0  0  0  0  0  0
    7.8843   -7.9629    0.0000 C   0  0  0  0  0  0  0  0  0  0  0  0
    7.8843   -8.7879    0.0000 N   0  0  0  0  0  0  0  0  0  0  0  0
    7.1698   -9.2004    0.0000 C   0  0  0  0  0  0  0  0  0  0  0  0
   10.7422  -11.2629    0.0000 C   0  0  0  0  0  0  0  0  0  0  0  0
    4.3119   -6.7254    0.0000 C   0  0  0  0  0  0  0  0  0  0  0  0
    3.5974   -8.7879    0.0000 C   0  0  0  0  0  0  0  0  0  0  0  0
 20  8  1  0  0  0  0
  8  7  1  0  0  0  0
  4  1  1  0  0  0  0
  7  2  2  0  0  0  0
  3  2  1  0  0  0  0
  4  3  2  0  0  0  0
  5  4  1  0  0  0  0
  6  5  2  0  0  0  0
  7  6  1  0  0  0  0
 13  9  1  0  0  0  0
 14 10  1  0  0  0  0
 16 11  2  0  0  0  0
 20 11  1  0  0  0  0
 12 11  1  0  0  0  0
 13 12  2  0  0  0  0
 14 13  1  0  0  0  0
 15 14  2  0  0  0  0
 16 15  1  0  0  0  0
 17 16  1  0  0  0  0
 18 17  1  0  0  0  0
 19 18  1  0  0  0  0
 20 19  1  0  0  0  0
  1 21  1  0  0  0  0
 10 22  1  0  0  0  0
  9 23  1  0  0  0  0
M  END
>  <cdx:fragmentId>
5

$$$$
