9895.cdx
  Mrv1902 05222410252D          

 11 11  0  0  0  0            999 V2000
    4.6021   -4.6713    0.0000 C   0  0  0  0  0  0  0  0  0  0  0  0
    3.8877   -5.0838    0.0000 C   0  0  0  0  0  0  0  0  0  0  0  0
    3.1732   -4.6713    0.0000 C   0  0  0  0  0  0  0  0  0  0  0  0
    3.1732   -3.8463    0.0000 C   0  0  0  0  0  0  0  0  0  0  0  0
    3.8877   -3.4338    0.0000 C   0  0  0  0  0  0  0  0  0  0  0  0
    4.6021   -3.8463    0.0000 C   0  0  0  0  0  0  0  0  0  0  0  0
    5.3166   -5.0838    0.0000 C   0  0  0  0  0  0  0  0  0  0  0  0
    6.0311   -4.6713    0.0000 O   0  0  0  0  0  0  0  0  0  0  0  0
    5.0146   -3.1318    0.0000 C   0  0  0  0  0  0  0  0  0  0  0  0
    5.4271   -3.8463    0.0000 C   0  0  0  0  0  0  0  0  0  0  0  0
    3.8877   -5.9088    0.0000 C   0  0  0  0  0  0  0  0  0  0  0  0
  1  2  2  0  0  0  0
  2  3  1  0  0  0  0
  3  4  1  0  0  0  0
  4  5  1  0  0  0  0
  5  6  1  0  0  0  0
  1  6  1  0  0  0  0
  7  8  2  0  0  0  0
  1  7  1  0  0  0  0
  6  9  1  0  0  0  0
  6 10  1  0  0  0  0
  2 11  1  0  0  0  0
M  END
>  <cdx:groupId>
35

>  <cdx:fragmentId>
5

$$$$
