98956.cdx
  Mrv1902 05222410252D          

 22 22  0  0  0  0            999 V2000
    3.2179   -6.9712    0.0000 C   0  0  0  0  0  0  0  0  0  0  0  0
    3.2179   -7.7963    0.0000 C   0  0  0  0  0  0  0  0  0  0  0  0
    4.0025   -8.0512    0.0000 C   0  0  0  0  0  0  0  0  0  0  0  0
    4.4874   -7.3838    0.0000 C   0  0  0  0  0  0  0  0  0  0  0  0
    4.0025   -6.7163    0.0000 O   0  0  0  0  0  0  0  0  0  0  0  0
    5.3124   -7.3838    0.0000 C   0  0  0  0  0  0  0  0  0  0  0  0
    5.7249   -6.6693    0.0000 O   0  0  0  0  0  0  0  0  0  0  0  0
    5.7249   -8.0982    0.0000 C   0  0  0  0  0  0  0  0  0  0  0  0
    6.1374   -5.9548    0.0000 C   0  0  0  0  0  0  0  0  0  0  0  0
    6.9624   -5.9548    0.0000 O   0  0  0  0  0  0  0  0  0  0  0  0
    5.7249   -5.2403    0.0000 C   0  0  0  0  0  0  0  0  0  0  0  0
    5.3124   -8.8127    0.0000 O   0  0  0  0  0  0  0  0  0  0  0  0
    4.8999   -9.5272    0.0000 C   0  0  0  0  0  0  0  0  0  0  0  0
    4.0749   -9.5272    0.0000 C   0  0  0  0  0  0  0  0  0  0  0  0
    5.3124  -10.2416    0.0000 O   0  0  0  0  0  0  0  0  0  0  0  0
    6.5499   -8.0982    0.0000 C   0  0  0  0  0  0  0  0  0  0  0  0
    7.3749   -8.0982    0.0000 C   0  0  0  0  0  0  0  0  0  0  0  0
    8.1999   -8.0982    0.0000 C   0  0  0  0  0  0  0  0  0  0  0  0
    9.0249   -8.0982    0.0000 C   0  0  0  0  0  0  0  0  0  0  0  0
    9.8499   -8.0982    0.0000 C   0  0  0  0  0  0  0  0  0  0  0  0
   10.2624   -7.3838    0.0000 C   0  0  0  0  0  0  0  0  0  0  0  0
   11.0874   -7.3838    0.0000 C   0  0  0  0  0  0  0  0  0  0  0  0
  1  2  2  0  0  0  0
  2  3  1  0  0  0  0
  3  4  2  0  0  0  0
  4  5  1  0  0  0  0
  5  1  1  0  0  0  0
  4  6  1  0  0  0  0
  6  7  1  0  0  0  0
  6  8  1  0  0  0  0
  7  9  1  0  0  0  0
  9 10  2  0  0  0  0
  9 11  1  0  0  0  0
  8 12  1  0  0  0  0
 12 13  1  0  0  0  0
 13 14  1  0  0  0  0
 13 15  2  0  0  0  0
  8 16  1  0  0  0  0
 16 17  3  0  0  0  0
 17 18  1  0  0  0  0
 18 19  3  0  0  0  0
 19 20  1  0  0  0  0
 20 21  2  0  0  0  0
 21 22  1  0  0  0  0
M  END
>  <cdx:fragmentId>
5

$$$$
