98952.cdx
  Mrv1902 05222410232D          

 21 20  0  0  0  0            999 V2000
    3.9805  -10.1618    0.0000 C   0  0  0  0  0  0  0  0  0  0  0  0
    4.6950   -9.7493    0.0000 C   0  0  0  0  0  0  0  0  0  0  0  0
    4.6950   -8.9243    0.0000 C   0  0  0  0  0  0  0  0  0  0  0  0
    5.4095   -8.5118    0.0000 C   0  0  0  0  0  0  0  0  0  0  0  0
    6.1239   -8.9243    0.0000 C   0  0  0  0  0  0  0  0  0  0  0  0
    6.8384   -8.5118    0.0000 C   0  0  0  0  0  0  0  0  0  0  0  0
    7.5529   -8.9243    0.0000 C   0  0  0  0  0  0  0  0  0  0  0  0
    8.2674   -9.3368    0.0000 C   0  0  0  0  0  0  0  0  0  0  0  0
    8.9818   -9.7493    0.0000 C   0  0  0  0  0  0  0  0  0  0  0  0
    9.6963  -10.1618    0.0000 C   0  0  0  0  0  0  0  0  0  0  0  0
   10.4108  -10.5743    0.0000 C   0  0  0  0  0  0  0  0  0  0  0  0
   11.1252  -10.1618    0.0000 C   0  0  0  0  0  0  0  0  0  0  0  0
   11.8397  -10.5743    0.0000 C   0  0  0  0  0  0  0  0  0  0  0  0
    3.2661   -8.9243    0.0000 C   0  0  0  0  0  0  0  0  0  0  0  0
    2.5516   -8.5118    0.0000 C   0  0  0  0  0  0  0  0  0  0  0  0
    3.2661   -9.7493    0.0000 O   0  0  0  0  0  0  0  0  0  0  0  0
    3.9805   -8.5118    0.0000 O   0  0  0  0  0  0  0  0  0  0  0  0
    4.6950   -7.2743    0.0000 C   0  0  0  0  0  0  0  0  0  0  0  0
    3.9805   -7.6868    0.0000 C   0  0  0  0  0  0  0  0  0  0  0  0
    4.6950   -6.4493    0.0000 O   0  0  0  0  0  0  0  0  0  0  0  0
    5.4095   -7.6868    0.0000 O   0  0  0  0  0  0  0  0  0  0  0  0
  1  2  2  0  0  0  0
  2  3  1  0  0  0  0
  3  4  1  0  0  0  0
  4  5  1  0  0  0  0
  5  6  2  0  0  0  0
  6  7  1  0  0  0  0
  7  8  3  0  0  0  0
  8  9  1  0  0  0  0
  9 10  3  0  0  0  0
 10 11  1  0  0  0  0
 11 12  2  0  0  0  0
 12 13  1  0  0  0  0
 14 15  1  0  0  0  0
 14 16  2  0  0  0  0
 14 17  1  0  0  0  0
  3 17  1  0  0  0  0
 18 19  1  0  0  0  0
 18 20  2  0  0  0  0
 18 21  1  0  0  0  0
  4 21  1  0  0  0  0
M  END
>  <cdx:fragmentId>
5

$$$$
