98955.cdx
  Mrv1902 05222410242D          

 40 43  0  0  0  0            999 V2000
    8.6652   -6.7157    0.0000 C   0  0  0  0  0  0  0  0  0  0  0  0
    9.3806   -7.1266    0.0000 C   0  0  0  0  0  0  0  0  0  0  0  0
    9.3825   -7.9516    0.0000 C   0  0  0  0  0  0  0  0  0  0  0  0
    8.6690   -8.3657    0.0000 C   0  0  0  0  0  0  0  0  0  0  0  0
    7.9536   -7.9549    0.0000 C   0  0  0  0  0  0  0  0  0  0  0  0
    7.2401   -8.3690    0.0000 C   0  0  0  0  0  0  0  0  0  0  0  0
    6.5246   -7.9582    0.0000 C   0  0  0  0  0  0  0  0  0  0  0  0
    6.5227   -7.1332    0.0000 C   0  0  0  0  0  0  0  0  0  0  0  0
    7.2362   -6.7191    0.0000 C   0  0  0  0  0  0  0  0  0  0  0  0
    7.9517   -7.1299    0.0000 C   0  0  0  0  0  0  0  0  0  0  0  0
   10.0941   -6.7124    0.0000 O   0  0  0  0  0  0  0  0  0  0  0  0
    6.2253   -9.0859    0.0000 C   0  0  0  0  0  0  0  0  0  0  0  0
    5.8111   -8.3724    0.0000 C   0  0  0  0  0  0  0  0  0  0  0  0
    5.4003   -9.0878    0.0000 C   0  0  0  0  0  0  0  0  0  0  0  0
    5.0957   -7.9615    0.0000 O   0  0  0  0  0  0  0  0  0  0  0  0
    3.6668   -7.9648    0.0000 O   0  0  0  0  0  0  0  0  0  0  0  0
    4.3822   -8.3757    0.0000 C   0  0  2  0  0  0  0  0  0  0  0  0
    4.3841   -9.2007    0.0000 C   0  0  1  0  0  0  0  0  0  0  0  0
    3.6706   -9.6148    0.0000 C   0  0  2  0  0  0  0  0  0  0  0  0
    2.9552   -9.2040    0.0000 C   0  0  1  0  0  0  0  0  0  0  0  0
    2.9532   -8.3790    0.0000 C   0  0  1  0  0  0  0  0  0  0  0  0
    2.2378   -7.9682    0.0000 C   0  0  0  0  0  0  0  0  0  0  0  0
    1.5243   -8.3823    0.0000 O   0  0  0  0  0  0  0  0  0  0  0  0
    2.2416   -9.6182    0.0000 O   0  0  0  0  0  0  0  0  0  0  0  0
    3.6725  -10.4398    0.0000 O   0  0  0  0  0  0  0  0  0  0  0  0
    5.0995   -9.6115    0.0000 O   0  0  0  0  0  0  0  0  0  0  0  0
   10.0979   -8.3624    0.0000 O   0  0  0  0  0  0  0  0  0  0  0  0
   10.8095   -7.1233    0.0000 O   0  0  0  0  0  0  0  0  0  0  0  0
   10.8114   -7.9483    0.0000 C   0  0  2  0  0  0  0  0  0  0  0  0
   11.5269   -8.3591    0.0000 C   0  0  1  0  0  0  0  0  0  0  0  0
   12.2404   -7.9449    0.0000 C   0  0  2  0  0  0  0  0  0  0  0  0
   12.2385   -7.1199    0.0000 C   0  0  1  0  0  0  0  0  0  0  0  0
   11.5230   -6.7091    0.0000 C   0  0  1  0  0  0  0  0  0  0  0  0
   11.5211   -5.8841    0.0000 C   0  0  0  0  0  0  0  0  0  0  0  0
   12.2346   -5.4699    0.0000 O   0  0  0  0  0  0  0  0  0  0  0  0
   12.9520   -6.7058    0.0000 O   0  0  0  0  0  0  0  0  0  0  0  0
   12.9558   -8.3558    0.0000 O   0  0  0  0  0  0  0  0  0  0  0  0
   11.5288   -9.1841    0.0000 O   0  0  0  0  0  0  0  0  0  0  0  0
    7.9497   -6.3049    0.0000 C   0  0  0  0  0  0  0  0  0  0  0  0
    8.6709   -9.1907    0.0000 C   0  0  0  0  0  0  0  0  0  0  0  0
  1  2  1  0  0  0  0
  2  3  1  0  0  0  0
  3  4  2  0  0  0  0
  4  5  1  0  0  0  0
  5  6  1  0  0  0  0
  6  7  1  0  0  0  0
  7  8  1  0  0  0  0
  8  9  1  0  0  0  0
  9 10  1  0  0  0  0
  1 10  1  0  0  0  0
  5 10  1  0  0  0  0
  2 11  2  0  0  0  0
 12 13  1  0  0  0  0
 13 14  1  0  0  0  0
 16 17  1  0  0  0  0
 17 18  1  0  0  0  0
 18 19  1  0  0  0  0
 19 20  1  0  0  0  0
 20 21  1  0  0  0  0
 16 21  1  0  0  0  0
 22 23  1  0  0  0  0
 21 22  1  1  0  0  0
 20 24  1  6  0  0  0
 19 25  1  1  0  0  0
 18 26  1  6  0  0  0
 17 15  1  1  0  0  0
 13 15  1  0  0  0  0
  7 13  1  0  0  0  0
 28 29  1  0  0  0  0
 29 30  1  0  0  0  0
 30 31  1  0  0  0  0
 31 32  1  0  0  0  0
 32 33  1  0  0  0  0
 28 33  1  0  0  0  0
 34 35  1  0  0  0  0
 33 34  1  6  0  0  0
 32 36  1  1  0  0  0
 31 37  1  6  0  0  0
 30 38  1  1  0  0  0
 29 27  1  6  0  0  0
  3 27  1  0  0  0  0
 10 39  1  0  0  0  0
  4 40  1  0  0  0  0
M  END
>  <cdx:fragmentId>
35

$$$$
