98953.cdx
  Mrv1902 05222410232D          

 27 27  0  0  0  0            999 V2000
    5.1024   -8.6477    0.0000 C   0  0  0  0  0  0  0  0  0  0  0  0
    4.4593   -9.0190    0.0000 C   0  0  0  0  0  0  0  0  0  0  0  0
    3.8163   -8.6477    0.0000 C   0  0  0  0  0  0  0  0  0  0  0  0
    5.1024   -7.9052    0.0000 O   0  0  0  0  0  0  0  0  0  0  0  0
    5.7454   -9.0190    0.0000 O   0  0  0  0  0  0  0  0  0  0  0  0
    3.1733   -9.0190    0.0000 C   0  0  0  0  0  0  0  0  0  0  0  0
    2.5303   -8.6477    0.0000 C   0  0  0  0  0  0  0  0  0  0  0  0
    1.8873   -9.0190    0.0000 C   0  0  0  0  0  0  0  0  0  0  0  0
    1.8873   -9.7615    0.0000 C   0  0  0  0  0  0  0  0  0  0  0  0
    2.5303  -10.1327    0.0000 C   0  0  0  0  0  0  0  0  0  0  0  0
    3.1733   -9.7615    0.0000 C   0  0  0  0  0  0  0  0  0  0  0  0
    1.2442   -8.6477    0.0000 O   0  0  0  0  0  0  0  0  0  0  0  0
    0.6012   -9.0190    0.0000 C   0  0  0  0  0  0  0  0  0  0  0  0
    1.2442  -10.1327    0.0000 O   0  0  0  0  0  0  0  0  0  0  0  0
    6.3884   -8.6477    0.0000 C   0  0  0  0  0  0  0  0  0  0  0  0
    7.0314   -9.0190    0.0000 C   0  0  0  0  0  0  0  0  0  0  0  0
    7.6745   -8.6477    0.0000 C   0  0  0  0  0  0  0  0  0  0  0  0
    8.3175   -9.0190    0.0000 C   0  0  0  0  0  0  0  0  0  0  0  0
    8.9605   -8.6477    0.0000 C   0  0  0  0  0  0  0  0  0  0  0  0
    9.6035   -9.0190    0.0000 C   0  0  0  0  0  0  0  0  0  0  0  0
   10.2466   -8.6477    0.0000 C   0  0  0  0  0  0  0  0  0  0  0  0
   10.8896   -8.2765    0.0000 C   0  0  0  0  0  0  0  0  0  0  0  0
   11.5326   -7.9052    0.0000 C   0  0  0  0  0  0  0  0  0  0  0  0
   12.1756   -7.5340    0.0000 C   0  0  0  0  0  0  0  0  0  0  0  0
   12.8187   -7.1627    0.0000 C   0  0  0  0  0  0  0  0  0  0  0  0
   13.4617   -7.5340    0.0000 C   0  0  0  0  0  0  0  0  0  0  0  0
   14.1047   -7.1627    0.0000 C   0  0  0  0  0  0  0  0  0  0  0  0
  1  2  1  0  0  0  0
  2  3  2  0  0  0  0
  1  4  2  0  0  0  0
  1  5  1  0  0  0  0
  6  7  1  0  0  0  0
  7  8  2  0  0  0  0
  8  9  1  0  0  0  0
  9 10  2  0  0  0  0
 10 11  1  0  0  0  0
  6 11  2  0  0  0  0
 12 13  1  0  0  0  0
  8 12  1  0  0  0  0
  9 14  1  0  0  0  0
  3  6  1  0  0  0  0
 15 16  1  0  0  0  0
 16 17  1  0  0  0  0
 17 18  2  0  0  0  0
 18 19  1  0  0  0  0
 19 20  2  0  0  0  0
 20 21  1  0  0  0  0
 21 22  3  0  0  0  0
 22 23  1  0  0  0  0
 23 24  3  0  0  0  0
 24 25  1  0  0  0  0
 25 26  2  0  0  0  0
 26 27  1  0  0  0  0
  5 15  1  0  0  0  0
M  END
>  <cdx:fragmentId>
15

$$$$
