98958.cdx
  Mrv1902 05222410212D          

 30 32  0  0  0  0            999 V2000
    4.1849  -10.9863    0.0000 C   0  0  0  0  0  0  0  0  0  0  0  0
    4.1849  -11.8113    0.0000 C   0  0  0  0  0  0  0  0  0  0  0  0
    4.8994  -12.2238    0.0000 C   0  0  0  0  0  0  0  0  0  0  0  0
    5.6139  -11.8113    0.0000 C   0  0  0  0  0  0  0  0  0  0  0  0
    5.6139  -10.9863    0.0000 C   0  0  0  0  0  0  0  0  0  0  0  0
    4.8994  -10.5737    0.0000 C   0  0  0  0  0  0  0  0  0  0  0  0
    4.8994   -9.7487    0.0000 C   0  0  0  0  0  0  0  0  0  0  0  0
    5.6139   -9.3362    0.0000 C   0  0  0  0  0  0  0  0  0  0  0  0
    5.6139   -8.5113    0.0000 O   0  0  0  0  0  0  0  0  0  0  0  0
    6.3283   -8.0987    0.0000 C   0  0  2  0  0  0  0  0  0  0  0  0
    7.0428   -8.5113    0.0000 O   0  0  0  0  0  0  0  0  0  0  0  0
    7.7573   -8.0987    0.0000 C   0  0  1  0  0  0  0  0  0  0  0  0
    7.7573   -7.2738    0.0000 C   0  0  2  0  0  0  0  0  0  0  0  0
    7.0428   -6.8613    0.0000 C   0  0  1  0  0  0  0  0  0  0  0  0
    6.3283   -7.2738    0.0000 C   0  0  1  0  0  0  0  0  0  0  0  0
    8.4718   -8.5113    0.0000 C   0  0  0  0  0  0  0  0  0  0  0  0
    9.1862   -8.0987    0.0000 O   0  0  0  0  0  0  0  0  0  0  0  0
    7.0428   -6.0362    0.0000 O   0  0  0  0  0  0  0  0  0  0  0  0
    7.7573   -5.6238    0.0000 C   0  0  2  0  0  0  0  0  0  0  0  0
    8.4718   -6.0362    0.0000 O   0  0  0  0  0  0  0  0  0  0  0  0
    9.1862   -5.6238    0.0000 C   0  0  2  0  0  0  0  0  0  0  0  0
    9.1862   -4.7988    0.0000 C   0  0  1  0  0  0  0  0  0  0  0  0
    8.4718   -4.3862    0.0000 C   0  0  2  0  0  0  0  0  0  0  0  0
    7.7573   -4.7988    0.0000 C   0  0  1  0  0  0  0  0  0  0  0  0
    9.9007   -4.3862    0.0000 O   0  0  0  0  0  0  0  0  0  0  0  0
    7.0428   -4.3862    0.0000 O   0  0  0  0  0  0  0  0  0  0  0  0
    8.4718   -3.5612    0.0000 O   0  0  0  0  0  0  0  0  0  0  0  0
    9.9007   -6.0362    0.0000 C   0  0  0  0  0  0  0  0  0  0  0  0
    5.6139   -6.8613    0.0000 O   0  0  0  0  0  0  0  0  0  0  0  0
    8.4718   -6.8613    0.0000 O   0  0  0  0  0  0  0  0  0  0  0  0
  1  2  2  0  0  0  0
  2  3  1  0  0  0  0
  3  4  2  0  0  0  0
  4  5  1  0  0  0  0
  5  6  2  0  0  0  0
  6  1  1  0  0  0  0
  6  7  1  0  0  0  0
  7  8  1  0  0  0  0
  8  9  1  0  0  0  0
 10  9  1  1  0  0  0
 10 11  1  0  0  0  0
 11 12  1  0  0  0  0
 12 13  1  0  0  0  0
 13 14  1  0  0  0  0
 14 15  1  0  0  0  0
 15 10  1  0  0  0  0
 12 16  1  1  0  0  0
 16 17  1  0  0  0  0
 14 18  1  1  0  0  0
 19 18  1  1  0  0  0
 19 20  1  0  0  0  0
 20 21  1  0  0  0  0
 21 22  1  0  0  0  0
 22 23  1  0  0  0  0
 23 24  1  0  0  0  0
 24 19  1  0  0  0  0
 22 25  1  1  0  0  0
 24 26  1  6  0  0  0
 23 27  1  6  0  0  0
 21 28  1  6  0  0  0
 15 29  1  6  0  0  0
 13 30  1  6  0  0  0
M  END
>  <cdx:fragmentId>
5

$$$$
