98957.cdx
  Mrv1902 05222410252D          

 18 18  0  0  0  0            999 V2000
    2.4754   -7.6725    0.0000 C   0  0  0  0  0  0  0  0  0  0  0  0
    2.4754   -8.4975    0.0000 C   0  0  0  0  0  0  0  0  0  0  0  0
    3.2600   -8.7524    0.0000 C   0  0  0  0  0  0  0  0  0  0  0  0
    3.7449   -8.0850    0.0000 C   0  0  0  0  0  0  0  0  0  0  0  0
    3.2600   -7.4176    0.0000 O   0  0  0  0  0  0  0  0  0  0  0  0
    4.5699   -8.0850    0.0000 C   0  0  0  0  0  0  0  0  0  0  0  0
    4.9824   -7.3705    0.0000 C   0  0  0  0  0  0  0  0  0  0  0  0
    5.8074   -7.3705    0.0000 C   0  0  0  0  0  0  0  0  0  0  0  0
    6.6324   -7.3705    0.0000 C   0  0  0  0  0  0  0  0  0  0  0  0
    7.4574   -7.3705    0.0000 C   0  0  0  0  0  0  0  0  0  0  0  0
    8.2824   -7.3705    0.0000 C   0  0  0  0  0  0  0  0  0  0  0  0
    9.1074   -7.3705    0.0000 C   0  0  0  0  0  0  0  0  0  0  0  0
    9.5199   -6.6561    0.0000 C   0  0  0  0  0  0  0  0  0  0  0  0
   10.3449   -6.6561    0.0000 C   0  0  0  0  0  0  0  0  0  0  0  0
   10.7574   -7.3705    0.0000 O   0  0  0  0  0  0  0  0  0  0  0  0
   11.5824   -7.3705    0.0000 C   0  0  0  0  0  0  0  0  0  0  0  0
   11.9949   -8.0850    0.0000 C   0  0  0  0  0  0  0  0  0  0  0  0
   11.9949   -6.6561    0.0000 O   0  0  0  0  0  0  0  0  0  0  0  0
  1  2  2  0  0  0  0
  2  3  1  0  0  0  0
  3  4  2  0  0  0  0
  4  5  1  0  0  0  0
  5  1  1  0  0  0  0
  4  6  1  0  0  0  0
  6  7  2  0  0  0  0
  7  8  1  0  0  0  0
  8  9  3  0  0  0  0
  9 10  1  0  0  0  0
 10 11  3  0  0  0  0
 11 12  1  0  0  0  0
 12 13  2  0  0  0  0
 13 14  1  0  0  0  0
 14 15  1  0  0  0  0
 15 16  1  0  0  0  0
 16 17  1  0  0  0  0
 16 18  2  0  0  0  0
M  END
>  <cdx:fragmentId>
5

$$$$
