98961.cdx
  Mrv1902 05222410222D          

 77 86  0  0  0  0            999 V2000
   12.9783  -11.2475    0.0000 C   0  0  1  0  0  0  0  0  0  0  0  0
   12.9783  -10.4225    0.0000 C   0  0  0  0  0  0  0  0  0  0  0  0
   13.6928  -10.0100    0.0000 C   0  0  0  0  0  0  0  0  0  0  0  0
   13.6928  -11.6600    0.0000 C   0  0  0  0  0  0  0  0  0  0  0  0
   14.4072  -11.2475    0.0000 C   0  0  2  0  0  0  0  0  0  0  0  0
   15.1217  -11.6600    0.0000 C   0  0  0  0  0  0  0  0  0  0  0  0
   15.8362  -11.2475    0.0000 C   0  0  0  0  0  0  0  0  0  0  0  0
   15.8362  -10.4225    0.0000 C   0  0  1  0  0  0  0  0  0  0  0  0
   16.5507  -10.0100    0.0000 C   0  0  2  0  0  0  0  0  0  0  0  0
   17.3353  -10.2649    0.0000 C   0  0  0  0  0  0  0  0  0  0  0  0
   17.8202   -9.5975    0.0000 C   0  0  2  0  0  0  0  0  0  0  0  0
   18.3051  -10.2649    0.0000 H   0  0  0  0  0  0  0  0  0  0  0  0
   18.6048   -9.3426    0.0000 O   0  0  0  0  0  0  0  0  0  0  0  0
   17.3353   -8.9301    0.0000 C   0  0  2  0  0  0  0  0  0  0  0  0
   16.9736   -8.1886    0.0000 H   0  0  0  0  0  0  0  0  0  0  0  0
   17.8202   -8.2626    0.0000 C   0  0  1  0  0  0  0  0  0  0  0  0
   18.6048   -8.5176    0.0000 C   0  0  1  0  0  0  0  0  0  0  0  0
   17.5653   -7.4780    0.0000 C   0  0  0  0  0  0  0  0  0  0  0  0
   16.5507   -9.1850    0.0000 C   0  0  2  0  0  0  0  0  0  0  0  0
   16.5507   -8.3600    0.0000 C   0  0  0  0  0  0  0  0  0  0  0  0
   15.8362   -8.7725    0.0000 C   0  0  0  0  0  0  0  0  0  0  0  0
   15.1217   -9.1850    0.0000 C   0  0  0  0  0  0  0  0  0  0  0  0
   15.1217  -10.0100    0.0000 C   0  0  2  0  0  0  0  0  0  0  0  0
   14.4072  -10.4225    0.0000 C   0  0  1  0  0  0  0  0  0  0  0  0
   14.4072   -9.5975    0.0000 C   0  0  0  0  0  0  0  0  0  0  0  0
   15.1217  -10.8350    0.0000 H   0  0  0  0  0  0  0  0  0  0  0  0
   15.8362   -9.5975    0.0000 H   0  0  0  0  0  0  0  0  0  0  0  0
   16.5507  -10.8350    0.0000 H   0  0  0  0  0  0  0  0  0  0  0  0
   12.2638  -11.6600    0.0000 O   0  0  0  0  0  0  0  0  0  0  0  0
   14.4072  -12.0725    0.0000 H   0  0  0  0  0  0  0  0  0  0  0  0
   10.8346   -9.9958    0.0000 C   0  0  2  0  0  0  0  0  0  0  0  0
   10.1184  -10.4054    0.0000 C   0  0  2  0  0  0  0  0  0  0  0  0
   10.1151  -11.2303    0.0000 C   0  0  1  0  0  0  0  0  0  0  0  0
   10.8278  -11.6458    0.0000 C   0  0  2  0  0  0  0  0  0  0  0  0
   11.5440  -11.2362    0.0000 C   0  0  1  0  0  0  0  0  0  0  0  0
   11.5474  -10.4112    0.0000 O   0  0  0  0  0  0  0  0  0  0  0  0
   10.8380   -9.1708    0.0000 C   0  0  0  0  0  0  0  0  0  0  0  0
    9.3989  -11.6399    0.0000 O   0  0  0  0  0  0  0  0  0  0  0  0
    9.4057   -9.9899    0.0000 O   0  0  0  0  0  0  0  0  0  0  0  0
   10.8245  -12.4708    0.0000 O   0  0  0  0  0  0  0  0  0  0  0  0
   10.1252   -8.7554    0.0000 O   0  0  0  0  0  0  0  0  0  0  0  0
   19.3585   -8.8531    0.0000 C   0  0  0  0  0  0  0  0  0  0  0  0
   20.0259   -8.3682    0.0000 C   0  0  0  0  0  0  0  0  0  0  0  0
   19.9397   -7.5477    0.0000 C   0  0  2  0  0  0  0  0  0  0  0  0
   19.1860   -7.2122    0.0000 C   0  0  0  0  0  0  0  0  0  0  0  0
   18.5186   -7.6971    0.0000 O   0  0  0  0  0  0  0  0  0  0  0  0
   20.6071   -7.0628    0.0000 C   0  0  0  0  0  0  0  0  0  0  0  0
   15.1217  -12.4850    0.0000 O   0  0  0  0  0  0  0  0  0  0  0  0
    8.6861  -11.2245    0.0000 C   0  0  2  0  0  0  0  0  0  0  0  0
    8.6912  -10.3995    0.0000 O   0  0  0  0  0  0  0  0  0  0  0  0
    7.9793   -9.9827    0.0000 C   0  0  1  0  0  0  0  0  0  0  0  0
    7.2623  -10.3995    0.0000 C   0  0  2  0  0  0  0  0  0  0  0  0
    7.2623  -11.2245    0.0000 C   0  0  1  0  0  0  0  0  0  0  0  0
    7.9793  -11.6414    0.0000 C   0  0  1  0  0  0  0  0  0  0  0  0
    7.9805   -9.1577    0.0000 C   0  0  0  0  0  0  0  0  0  0  0  0
    6.5472  -11.6359    0.0000 O   0  0  0  0  0  0  0  0  0  0  0  0
    6.5472   -9.9881    0.0000 O   0  0  0  0  0  0  0  0  0  0  0  0
    7.9818  -12.4664    0.0000 O   0  0  0  0  0  0  0  0  0  0  0  0
    7.2667   -8.7441    0.0000 O   0  0  0  0  0  0  0  0  0  0  0  0
    5.7223  -10.0023    0.0000 C   0  0  2  0  0  0  0  0  0  0  0  0
    7.2680   -7.9191    0.0000 C   0  0  2  0  0  0  0  0  0  0  0  0
    7.9821   -7.5060    0.0000 O   0  0  0  0  0  0  0  0  0  0  0  0
    7.9821   -6.6810    0.0000 C   0  0  0  0  0  0  0  0  0  0  0  0
    7.2680   -6.2691    0.0000 C   0  0  1  0  0  0  0  0  0  0  0  0
    6.5538   -6.6810    0.0000 C   0  0  1  0  0  0  0  0  0  0  0  0
    6.5538   -7.5060    0.0000 C   0  0  1  0  0  0  0  0  0  0  0  0
    5.2965   -9.2957    0.0000 O   0  0  0  0  0  0  0  0  0  0  0  0
    4.4737   -9.3074    0.0000 C   0  0  0  0  0  0  0  0  0  0  0  0
    4.0725  -10.0283    0.0000 C   0  0  2  0  0  0  0  0  0  0  0  0
    4.4961  -10.7336    0.0000 C   0  0  1  0  0  0  0  0  0  0  0  0
    5.3211  -10.7232    0.0000 C   0  0  1  0  0  0  0  0  0  0  0  0
    5.7437  -11.4317    0.0000 O   0  0  0  0  0  0  0  0  0  0  0  0
    4.0944  -11.4542    0.0000 O   0  0  0  0  0  0  0  0  0  0  0  0
    3.2476  -10.0418    0.0000 O   0  0  0  0  0  0  0  0  0  0  0  0
    5.8392   -7.9182    0.0000 O   0  0  0  0  0  0  0  0  0  0  0  0
    5.8394   -6.2684    0.0000 O   0  0  0  0  0  0  0  0  0  0  0  0
    7.2680   -5.4441    0.0000 O   0  0  0  0  0  0  0  0  0  0  0  0
  1  2  1  0  0  0  0
  2  3  1  0  0  0  0
  1  4  1  0  0  0  0
  4  5  1  0  0  0  0
  5  6  1  0  0  0  0
  6  7  1  0  0  0  0
  7  8  1  0  0  0  0
  8  9  1  0  0  0  0
  9 10  1  0  0  0  0
 10 11  1  0  0  0  0
 11 12  1  6  0  0  0
 11 13  1  0  0  0  0
 11 14  1  0  0  0  0
 14 15  1  6  0  0  0
 14 16  1  0  0  0  0
 16 17  1  0  0  0  0
 17 13  1  6  0  0  0
 16 18  1  6  0  0  0
 14 19  1  0  0  0  0
  9 19  1  0  0  0  0
 19 20  1  1  0  0  0
 19 21  1  0  0  0  0
 21 22  1  0  0  0  0
 22 23  1  0  0  0  0
  8 23  1  0  0  0  0
 23 24  1  0  0  0  0
  3 24  1  0  0  0  0
  5 24  1  0  0  0  0
 24 25  1  1  0  0  0
 23 26  1  6  0  0  0
  8 27  1  1  0  0  0
  9 28  1  6  0  0  0
  1 29  1  1  0  0  0
  5 30  1  6  0  0  0
 31 32  1  0  0  0  0
 32 33  1  0  0  0  0
 33 34  1  0  0  0  0
 34 35  1  0  0  0  0
 35 36  1  0  0  0  0
 36 31  1  0  0  0  0
 31 37  1  1  0  0  0
 33 38  1  1  0  0  0
 32 39  1  6  0  0  0
 34 40  1  6  0  0  0
 37 41  1  0  0  0  0
 35 29  1  1  0  0  0
 17 42  1  0  0  0  0
 42 43  1  0  0  0  0
 43 44  1  0  0  0  0
 44 45  1  0  0  0  0
 45 46  1  0  0  0  0
 46 17  1  0  0  0  0
 44 47  1  6  0  0  0
  6 48  2  0  0  0  0
 49 38  1  1  0  0  0
 49 50  1  0  0  0  0
 50 51  1  0  0  0  0
 51 52  1  0  0  0  0
 52 53  1  0  0  0  0
 53 54  1  0  0  0  0
 54 49  1  0  0  0  0
 51 55  1  1  0  0  0
 53 56  1  1  0  0  0
 52 57  1  6  0  0  0
 54 58  1  6  0  0  0
 55 59  1  0  0  0  0
 60 57  1  1  0  0  0
 61 59  1  1  0  0  0
 61 62  1  0  0  0  0
 62 63  1  0  0  0  0
 63 64  1  0  0  0  0
 64 65  1  0  0  0  0
 65 66  1  0  0  0  0
 66 61  1  0  0  0  0
 60 67  1  0  0  0  0
 67 68  1  0  0  0  0
 68 69  1  0  0  0  0
 69 70  1  0  0  0  0
 70 71  1  0  0  0  0
 71 60  1  0  0  0  0
 71 72  1  6  0  0  0
 70 73  1  1  0  0  0
 69 74  1  6  0  0  0
 66 75  1  6  0  0  0
 65 76  1  1  0  0  0
 64 77  1  1  0  0  0
M  END
>  <cdx:fragmentId>
5

$$$$
