98970.cdx
  Mrv1902 05222410212D          

 12 11  0  0  0  0            999 V2000
    3.0821   -3.5575    0.0000 C   0  0  0  0  0  0  0  0  0  0  0  0
    3.7966   -3.1450    0.0000 C   0  0  0  0  0  0  0  0  0  0  0  0
    3.7966   -2.3200    0.0000 C   0  0  0  0  0  0  0  0  0  0  0  0
    4.5111   -1.9075    0.0000 C   0  0  0  0  0  0  0  0  0  0  0  0
    5.2255   -2.3200    0.0000 C   0  0  0  0  0  0  0  0  0  0  0  0
    5.9400   -1.9075    0.0000 C   0  0  0  0  0  0  0  0  0  0  0  0
    6.6545   -2.3200    0.0000 C   0  0  0  0  0  0  0  0  0  0  0  0
    7.3689   -1.9075    0.0000 C   0  0  0  0  0  0  0  0  0  0  0  0
    8.0834   -2.3200    0.0000 C   0  0  0  0  0  0  0  0  0  0  0  0
    8.7979   -1.9075    0.0000 C   0  0  0  0  0  0  0  0  0  0  0  0
    9.5124   -2.3200    0.0000 C   0  0  0  0  0  0  0  0  0  0  0  0
    3.0821   -1.9075    0.0000 O   0  0  0  0  0  0  0  0  0  0  0  0
  1  2  1  0  0  0  0
  2  3  1  0  0  0  0
  3  4  1  0  0  0  0
  4  5  1  0  0  0  0
  5  6  1  0  0  0  0
  6  7  1  0  0  0  0
  7  8  1  0  0  0  0
  8  9  1  0  0  0  0
  9 10  1  0  0  0  0
 10 11  1  0  0  0  0
  3 12  1  0  0  0  0
M  END
>  <cdx:fragmentId>
5

$$$$
