98984.cdx
  Mrv1902 05222410232D          

 15 16  0  0  0  0            999 V2000
    5.7341   -8.0300    0.0000 C   0  0  0  0  0  0  0  0  0  0  0  0
    5.7341   -8.8550    0.0000 C   0  0  0  0  0  0  0  0  0  0  0  0
    6.3791   -9.3694    0.0000 C   0  0  0  0  0  0  0  0  0  0  0  0
    7.1834   -9.1858    0.0000 C   0  0  0  0  0  0  0  0  0  0  0  0
    7.5414   -8.4425    0.0000 C   0  0  0  0  0  0  0  0  0  0  0  0
    7.1834   -7.6992    0.0000 C   0  0  0  0  0  0  0  0  0  0  0  0
    6.3791   -7.5156    0.0000 C   0  0  0  0  0  0  0  0  0  0  0  0
    7.6066   -6.9910    0.0000 C   0  0  0  0  0  0  0  0  0  0  0  0
    7.0638   -6.3697    0.0000 C   0  0  0  0  0  0  0  0  0  0  0  0
    6.3051   -6.6939    0.0000 C   0  0  0  0  0  0  0  0  0  0  0  0
    8.4282   -6.9170    0.0000 C   0  0  0  0  0  0  0  0  0  0  0  0
    4.9908   -7.6720    0.0000 C   0  0  0  0  0  0  0  0  0  0  0  0
    7.6978   -9.8308    0.0000 C   0  0  0  0  0  0  0  0  0  0  0  0
    7.3964  -10.5988    0.0000 C   0  0  0  0  0  0  0  0  0  0  0  0
    8.5136   -9.7079    0.0000 C   0  0  0  0  0  0  0  0  0  0  0  0
  1  2  1  0  0  0  0
  2  3  1  0  0  0  0
  3  4  1  0  0  0  0
  4  5  1  0  0  0  0
  5  6  1  0  0  0  0
  6  7  1  0  0  0  0
  7  1  2  0  0  0  0
  6  8  2  0  0  0  0
  8  9  1  0  0  0  0
  9 10  1  0  0  0  0
 10  7  1  0  0  0  0
  8 11  1  0  0  0  0
  1 12  1  0  0  0  0
  4 13  1  0  0  0  0
 13 14  1  0  0  0  0
 13 15  2  0  0  0  0
M  END
>  <cdx:fragmentId>
5

$$$$
