98982.cdx
  Mrv1902 05222410252D          

 15 15  0  0  0  0            999 V2000
    4.9824   -7.7275    0.0000 C   0  0  0  0  0  0  0  0  0  0  0  0
    4.9824   -8.5525    0.0000 C   0  0  0  0  0  0  0  0  0  0  0  0
    5.6969   -8.9650    0.0000 C   0  0  0  0  0  0  0  0  0  0  0  0
    6.4114   -8.5525    0.0000 C   0  0  0  0  0  0  0  0  0  0  0  0
    6.4114   -7.7275    0.0000 C   0  0  0  0  0  0  0  0  0  0  0  0
    5.6969   -7.3150    0.0000 C   0  0  0  0  0  0  0  0  0  0  0  0
    4.2680   -7.3150    0.0000 O   0  0  0  0  0  0  0  0  0  0  0  0
    4.2680   -8.9650    0.0000 O   0  0  0  0  0  0  0  0  0  0  0  0
    7.1258   -7.3150    0.0000 C   0  0  0  0  0  0  0  0  0  0  0  0
    7.8403   -7.7275    0.0000 C   0  0  2  0  0  0  0  0  0  0  0  0
    8.5548   -7.3150    0.0000 C   0  0  0  0  0  0  0  0  0  0  0  0
    9.2693   -7.7275    0.0000 O   0  0  0  0  0  0  0  0  0  0  0  0
    8.5548   -6.4900    0.0000 O   0  0  0  0  0  0  0  0  0  0  0  0
    9.9837   -7.3150    0.0000 C   0  0  0  0  0  0  0  0  0  0  0  0
    7.8403   -8.5525    0.0000 O   0  0  0  0  0  0  0  0  0  0  0  0
  1  2  2  0  0  0  0
  2  3  1  0  0  0  0
  3  4  2  0  0  0  0
  4  5  1  0  0  0  0
  5  6  2  0  0  0  0
  6  1  1  0  0  0  0
  1  7  1  0  0  0  0
  2  8  1  0  0  0  0
  5  9  1  0  0  0  0
  9 10  1  0  0  0  0
 10 11  1  0  0  0  0
 11 12  1  0  0  0  0
 11 13  2  0  0  0  0
 12 14  1  0  0  0  0
 10 15  1  6  0  0  0
M  END
>  <cdx:fragmentId>
5

$$$$
