98988.cdx
  Mrv1902 05222410222D          

 24 26  0  0  0  0            999 V2000
    4.1437   -6.5450    0.0000 C   0  0  0  0  0  0  0  0  0  0  0  0
    4.1437   -7.3700    0.0000 C   0  0  0  0  0  0  0  0  0  0  0  0
    4.8581   -7.7825    0.0000 C   0  0  0  0  0  0  0  0  0  0  0  0
    5.5726   -7.3700    0.0000 C   0  0  0  0  0  0  0  0  0  0  0  0
    5.5726   -6.5450    0.0000 C   0  0  0  0  0  0  0  0  0  0  0  0
    4.8581   -6.1325    0.0000 C   0  0  0  0  0  0  0  0  0  0  0  0
    6.2871   -7.7825    0.0000 C   0  0  0  0  0  0  0  0  0  0  0  0
    7.0016   -7.3700    0.0000 C   0  0  0  0  0  0  0  0  0  0  0  0
    7.0016   -6.5450    0.0000 C   0  0  0  0  0  0  0  0  0  0  0  0
    6.2871   -6.1325    0.0000 O   0  0  0  0  0  0  0  0  0  0  0  0
    7.7160   -7.7825    0.0000 C   0  0  0  0  0  0  0  0  0  0  0  0
    8.4305   -7.3700    0.0000 C   0  0  0  0  0  0  0  0  0  0  0  0
    8.4305   -6.5450    0.0000 C   0  0  0  0  0  0  0  0  0  0  0  0
    9.1450   -7.7825    0.0000 C   0  0  0  0  0  0  0  0  0  0  0  0
    9.8594   -7.3700    0.0000 C   0  0  0  0  0  0  0  0  0  0  0  0
    9.8594   -6.5450    0.0000 C   0  0  0  0  0  0  0  0  0  0  0  0
    9.1450   -6.1325    0.0000 C   0  0  0  0  0  0  0  0  0  0  0  0
    3.4292   -6.1325    0.0000 O   0  0  0  0  0  0  0  0  0  0  0  0
    3.4292   -7.7825    0.0000 C   0  0  0  0  0  0  0  0  0  0  0  0
    4.8581   -8.6075    0.0000 O   0  0  0  0  0  0  0  0  0  0  0  0
    6.2871   -8.6075    0.0000 O   0  0  0  0  0  0  0  0  0  0  0  0
   10.5739   -6.1325    0.0000 O   0  0  0  0  0  0  0  0  0  0  0  0
   10.5739   -7.7825    0.0000 O   0  0  0  0  0  0  0  0  0  0  0  0
   11.2884   -7.3700    0.0000 C   0  0  0  0  0  0  0  0  0  0  0  0
  1  2  2  0  0  0  0
  2  3  1  0  0  0  0
  3  4  2  0  0  0  0
  4  5  1  0  0  0  0
  5  6  2  0  0  0  0
  6  1  1  0  0  0  0
  4  7  1  0  0  0  0
  7  8  1  0  0  0  0
  8  9  1  0  0  0  0
  9 10  1  0  0  0  0
 10  5  1  0  0  0  0
  8 11  1  0  0  0  0
 11 12  1  0  0  0  0
 12 13  2  0  0  0  0
 12 14  1  0  0  0  0
 14 15  2  0  0  0  0
 15 16  1  0  0  0  0
 16 17  2  0  0  0  0
 17 13  1  0  0  0  0
  1 18  1  0  0  0  0
  2 19  1  0  0  0  0
  3 20  1  0  0  0  0
  7 21  2  0  0  0  0
 16 22  1  0  0  0  0
 15 23  1  0  0  0  0
 23 24  1  0  0  0  0
M  END
>  <cdx:fragmentId>
5

$$$$
