98985.cdx
  Mrv1902 05222410232D          

 65 73  0  0  0  0            999 V2000
   15.8288   -8.7694    0.0000 C   0  0  1  0  0  0  0  0  0  0  0  0
   16.5402   -8.3518    0.0000 C   0  0  2  0  0  0  0  0  0  0  0  0
   17.3267   -8.6010    0.0000 C   0  0  0  0  0  0  0  0  0  0  0  0
   17.8068   -7.9301    0.0000 C   0  0  2  0  0  0  0  0  0  0  0  0
   18.5895   -7.6695    0.0000 O   0  0  0  0  0  0  0  0  0  0  0  0
   18.5836   -6.8445    0.0000 C   0  0  2  0  0  0  0  0  0  0  0  0
   17.7971   -6.5953    0.0000 C   0  0  2  0  0  0  0  0  0  0  0  0
   17.3170   -7.2662    0.0000 C   0  0  2  0  0  0  0  0  0  0  0  0
   16.5343   -7.5268    0.0000 C   0  0  1  0  0  0  0  0  0  0  0  0
   15.8169   -7.1194    0.0000 C   0  0  0  0  0  0  0  0  0  0  0  0
   15.1054   -7.5371    0.0000 C   0  0  0  0  0  0  0  0  0  0  0  0
   15.1113   -8.3621    0.0000 C   0  0  2  0  0  0  0  0  0  0  0  0
   14.3999   -8.7797    0.0000 C   0  0  1  0  0  0  0  0  0  0  0  0
   13.6824   -8.3724    0.0000 C   0  0  0  0  0  0  0  0  0  0  0  0
   12.9710   -8.7900    0.0000 C   0  0  0  0  0  0  0  0  0  0  0  0
   12.9769   -9.6150    0.0000 C   0  0  1  0  0  0  0  0  0  0  0  0
   13.6943  -10.0223    0.0000 C   0  0  0  0  0  0  0  0  0  0  0  0
   14.4058   -9.6047    0.0000 C   0  0  0  0  0  0  0  0  0  0  0  0
   15.1233  -10.0120    0.0000 C   0  0  0  0  0  0  0  0  0  0  0  0
   15.8347   -9.5944    0.0000 C   0  0  0  0  0  0  0  0  0  0  0  0
   18.4914   -6.0247    0.0000 O   0  0  0  0  0  0  0  0  0  0  0  0
   19.3397   -7.1746    0.0000 C   0  0  0  0  0  0  0  0  0  0  0  0
   20.0036   -6.6849    0.0000 C   0  0  0  0  0  0  0  0  0  0  0  0
   19.9114   -5.8651    0.0000 C   0  0  2  0  0  0  0  0  0  0  0  0
   19.1553   -5.5350    0.0000 C   0  0  0  0  0  0  0  0  0  0  0  0
   12.2654  -10.0327    0.0000 O   0  0  0  0  0  0  0  0  0  0  0  0
   14.3939   -7.9547    0.0000 C   0  0  0  0  0  0  0  0  0  0  0  0
   16.5343   -6.7018    0.0000 C   0  0  0  0  0  0  0  0  0  0  0  0
   17.5365   -5.8125    0.0000 C   0  0  0  0  0  0  0  0  0  0  0  0
   20.5753   -5.3753    0.0000 C   0  0  0  0  0  0  0  0  0  0  0  0
   15.8228   -7.9444    0.0000 H   0  0  0  0  0  0  0  0  0  0  0  0
   18.2965   -8.5940    0.0000 H   0  0  0  0  0  0  0  0  0  0  0  0
   16.9500   -6.5273    0.0000 H   0  0  0  0  0  0  0  0  0  0  0  0
   15.1173   -9.1870    0.0000 H   0  0  0  0  0  0  0  0  0  0  0  0
   11.5480   -9.6253    0.0000 C   0  0  2  0  0  0  0  0  0  0  0  0
   11.5391   -8.8004    0.0000 O   0  0  0  0  0  0  0  0  0  0  0  0
   10.8202   -8.3957    0.0000 C   0  0  1  0  0  0  0  0  0  0  0  0
   10.1102   -8.8004    0.0000 C   0  0  2  0  0  0  0  0  0  0  0  0
   10.1102   -9.6253    0.0000 C   0  0  1  0  0  0  0  0  0  0  0  0
   10.8202  -10.0300    0.0000 C   0  0  1  0  0  0  0  0  0  0  0  0
   10.8179   -7.5707    0.0000 C   0  0  0  0  0  0  0  0  0  0  0  0
    9.3969  -10.0398    0.0000 O   0  0  0  0  0  0  0  0  0  0  0  0
   10.8158  -10.8550    0.0000 O   0  0  0  0  0  0  0  0  0  0  0  0
    9.3969   -8.3859    0.0000 O   0  0  0  0  0  0  0  0  0  0  0  0
   10.1035   -7.1582    0.0000 O   0  0  0  0  0  0  0  0  0  0  0  0
   11.2130  -11.5781    0.0000 C   0  0  2  0  0  0  0  0  0  0  0  0
   10.7836  -12.2825    0.0000 O   0  0  0  0  0  0  0  0  0  0  0  0
   11.1789  -13.0066    0.0000 C   0  0  2  0  0  0  0  0  0  0  0  0
   12.0095  -13.0165    0.0000 C   0  0  1  0  0  0  0  0  0  0  0  0
   12.4333  -12.3087    0.0000 C   0  0  2  0  0  0  0  0  0  0  0  0
   12.0323  -11.5812    0.0000 C   0  0  1  0  0  0  0  0  0  0  0  0
   12.4121  -13.7367    0.0000 O   0  0  0  0  0  0  0  0  0  0  0  0
   10.7537  -13.7136    0.0000 C   0  0  0  0  0  0  0  0  0  0  0  0
   13.2582  -12.3235    0.0000 O   0  0  0  0  0  0  0  0  0  0  0  0
   12.4533  -10.8717    0.0000 O   0  0  0  0  0  0  0  0  0  0  0  0
   16.5462   -9.1767    0.0000 O   0  0  0  0  0  0  0  0  0  0  0  0
    8.5719   -8.3860    0.0000 C   0  0  2  0  0  0  0  0  0  0  0  0
    8.1613   -7.6704    0.0000 O   0  0  0  0  0  0  0  0  0  0  0  0
    7.3324   -7.6749    0.0000 C   0  0  0  0  0  0  0  0  0  0  0  0
    6.9219   -8.3905    0.0000 C   0  0  2  0  0  0  0  0  0  0  0  0
    7.3364   -9.1084    0.0000 C   0  0  1  0  0  0  0  0  0  0  0  0
    8.1614   -9.1016    0.0000 C   0  0  1  0  0  0  0  0  0  0  0  0
    8.5778   -9.8137    0.0000 O   0  0  0  0  0  0  0  0  0  0  0  0
    6.9269   -9.8246    0.0000 O   0  0  0  0  0  0  0  0  0  0  0  0
    6.0969   -8.3917    0.0000 O   0  0  0  0  0  0  0  0  0  0  0  0
  1  2  1  0  0  0  0
  2  3  1  0  0  0  0
  3  4  1  0  0  0  0
  4  5  1  0  0  0  0
  6  5  1  6  0  0  0
  6  7  1  0  0  0  0
  7  8  1  0  0  0  0
  8  9  1  0  0  0  0
  9 10  1  0  0  0  0
 10 11  1  0  0  0  0
 11 12  1  0  0  0  0
 12 13  1  0  0  0  0
 13 14  1  0  0  0  0
 14 15  1  0  0  0  0
 15 16  1  0  0  0  0
 16 17  1  0  0  0  0
 17 18  1  0  0  0  0
 18 19  2  0  0  0  0
 19 20  1  0  0  0  0
  1 20  1  0  0  0  0
  1 12  1  0  0  0  0
 13 18  1  0  0  0  0
  2  9  1  0  0  0  0
  4  8  1  0  0  0  0
 22 23  1  0  0  0  0
 23 24  1  0  0  0  0
 24 25  1  0  0  0  0
 21 25  1  0  0  0  0
  6 21  1  0  0  0  0
  6 22  1  0  0  0  0
 16 26  1  1  0  0  0
 13 27  1  1  0  0  0
  9 28  1  1  0  0  0
  7 29  1  6  0  0  0
 24 30  1  6  0  0  0
  1 31  1  1  0  0  0
  4 32  1  6  0  0  0
  8 33  1  6  0  0  0
 12 34  1  6  0  0  0
 35 26  1  1  0  0  0
 35 36  1  0  0  0  0
 36 37  1  0  0  0  0
 37 38  1  0  0  0  0
 38 39  1  0  0  0  0
 39 40  1  0  0  0  0
 40 35  1  0  0  0  0
 37 41  1  1  0  0  0
 39 42  1  1  0  0  0
 40 43  1  6  0  0  0
 38 44  1  6  0  0  0
 41 45  1  0  0  0  0
 46 43  1  1  0  0  0
 46 47  1  0  0  0  0
 47 48  1  0  0  0  0
 48 49  1  0  0  0  0
 49 50  1  0  0  0  0
 50 51  1  0  0  0  0
 51 46  1  0  0  0  0
 49 52  1  1  0  0  0
 48 53  1  6  0  0  0
 50 54  1  6  0  0  0
 51 55  1  6  0  0  0
  2 56  1  6  0  0  0
 57 44  1  1  0  0  0
 57 58  1  0  0  0  0
 58 59  1  0  0  0  0
 59 60  1  0  0  0  0
 60 61  1  0  0  0  0
 61 62  1  0  0  0  0
 62 57  1  0  0  0  0
 62 63  1  6  0  0  0
 61 64  1  1  0  0  0
 60 65  1  6  0  0  0
M  END
>  <cdx:fragmentId>
5

$$$$
