98987.cdx
  Mrv1902 05222410242D          

 32 34  0  0  0  0            999 V2000
    7.9257   -8.2585    0.0000 C   0  0  1  0  0  0  0  0  0  0  0  0
    8.6402   -7.8460    0.0000 C   0  0  1  0  0  0  0  0  0  0  0  0
    8.6402   -7.0210    0.0000 C   0  0  1  0  0  0  0  0  0  0  0  0
    7.9257   -6.6085    0.0000 C   0  0  0  0  0  0  0  0  0  0  0  0
    7.2113   -7.0210    0.0000 C   0  0  0  0  0  0  0  0  0  0  0  0
    7.2113   -7.8460    0.0000 O   0  0  0  0  0  0  0  0  0  0  0  0
    9.4248   -6.7660    0.0000 C   0  0  1  0  0  0  0  0  0  0  0  0
    9.9097   -7.4335    0.0000 C   0  0  0  0  0  0  0  0  0  0  0  0
    9.4248   -8.1009    0.0000 C   0  0  1  0  0  0  0  0  0  0  0  0
    7.9257   -5.7835    0.0000 C   0  0  0  0  0  0  0  0  0  0  0  0
    8.6402   -5.3710    0.0000 O   0  0  0  0  0  0  0  0  0  0  0  0
    7.2113   -5.3710    0.0000 O   0  0  0  0  0  0  0  0  0  0  0  0
    7.9257   -9.0835    0.0000 O   0  0  0  0  0  0  0  0  0  0  0  0
    6.4968   -9.0835    0.0000 O   0  0  0  0  0  0  0  0  0  0  0  0
    7.2113   -9.4960    0.0000 C   0  0  2  0  0  0  0  0  0  0  0  0
    7.2113  -10.3210    0.0000 C   0  0  1  0  0  0  0  0  0  0  0  0
    6.4968  -10.7335    0.0000 C   0  0  2  0  0  0  0  0  0  0  0  0
    5.7823  -10.3210    0.0000 C   0  0  1  0  0  0  0  0  0  0  0  0
    5.7823   -9.4960    0.0000 C   0  0  1  0  0  0  0  0  0  0  0  0
    5.0678   -9.0835    0.0000 C   0  0  0  0  0  0  0  0  0  0  0  0
    4.3534   -9.4960    0.0000 O   0  0  0  0  0  0  0  0  0  0  0  0
    5.0678  -10.7335    0.0000 O   0  0  0  0  0  0  0  0  0  0  0  0
    6.4968  -11.5585    0.0000 O   0  0  0  0  0  0  0  0  0  0  0  0
    7.9257  -10.7335    0.0000 O   0  0  0  0  0  0  0  0  0  0  0  0
    9.2533   -8.9079    0.0000 C   0  0  0  0  0  0  0  0  0  0  0  0
   10.0379   -8.6530    0.0000 O   0  0  0  0  0  0  0  0  0  0  0  0
    9.6798   -5.9814    0.0000 O   0  0  0  0  0  0  0  0  0  0  0  0
    8.7264   -6.2005    0.0000 H   0  0  0  0  0  0  0  0  0  0  0  0
    8.7264   -8.6665    0.0000 H   0  0  0  0  0  0  0  0  0  0  0  0
   10.8225   -8.3980    0.0000 C   0  0  0  0  0  0  0  0  0  0  0  0
   11.4356   -8.9500    0.0000 O   0  0  0  0  0  0  0  0  0  0  0  0
   10.9941   -7.5910    0.0000 C   0  0  0  0  0  0  0  0  0  0  0  0
  1  2  1  0  0  0  0
  2  3  1  0  0  0  0
  3  4  1  0  0  0  0
  4  5  2  0  0  0  0
  5  6  1  0  0  0  0
  1  6  1  0  0  0  0
  7  8  1  0  0  0  0
  8  9  1  0  0  0  0
  9  2  1  0  0  0  0
  7  3  1  0  0  0  0
 10 11  2  0  0  0  0
 10 12  1  0  0  0  0
  4 10  1  0  0  0  0
 14 15  1  0  0  0  0
 15 16  1  0  0  0  0
 16 17  1  0  0  0  0
 17 18  1  0  0  0  0
 18 19  1  0  0  0  0
 14 19  1  0  0  0  0
 20 21  1  0  0  0  0
 19 20  1  1  0  0  0
 18 22  1  6  0  0  0
 17 23  1  1  0  0  0
 16 24  1  6  0  0  0
 15 13  1  1  0  0  0
  1 13  1  6  0  0  0
  9 25  1  1  0  0  0
  9 26  1  6  0  0  0
  7 27  1  6  0  0  0
  3 28  1  6  0  0  0
  2 29  1  6  0  0  0
 26 30  1  0  0  0  0
 30 31  2  0  0  0  0
 30 32  1  0  0  0  0
M  END
>  <cdx:fragmentId>
5

$$$$
