98983.cdx
  Mrv1902 05222410252D          

 14 15  0  0  0  0            999 V2000
    8.6034   -9.5442    0.0000 C   0  0  1  0  0  0  0  0  0  0  0  0
    7.8857   -9.9509    0.0000 C   0  0  0  0  0  0  0  0  0  0  0  0
    8.6101   -8.7192    0.0000 N   0  0  0  0  0  0  0  0  0  0  0  0
    7.1745   -9.5327    0.0000 N   0  0  0  0  0  0  0  0  0  0  0  0
    7.1812   -8.7077    0.0000 C   0  0  2  0  0  0  0  0  0  0  0  0
    7.8990   -8.3010    0.0000 C   0  0  0  0  0  0  0  0  0  0  0  0
    9.3860   -9.8054    0.0000 C   0  0  0  0  0  0  0  0  0  0  0  0
    9.8763   -9.1419    0.0000 C   0  0  0  0  0  0  0  0  0  0  0  0
    9.3967   -8.4706    0.0000 C   0  0  0  0  0  0  0  0  0  0  0  0
    7.8790  -10.7759    0.0000 O   0  0  0  0  0  0  0  0  0  0  0  0
    7.9056   -7.4760    0.0000 O   0  0  0  0  0  0  0  0  0  0  0  0
    6.4701   -8.2895    0.0000 C   0  0  0  0  0  0  0  0  0  0  0  0
    8.6831  -10.3653    0.0000 H   0  0  0  0  0  0  0  0  0  0  0  0
    7.1878   -7.8827    0.0000 H   0  0  0  0  0  0  0  0  0  0  0  0
  1  2  1  0  0  0  0
  1  3  1  0  0  0  0
  2  4  1  0  0  0  0
  4  5  1  0  0  0  0
  5  6  1  0  0  0  0
  3  6  1  0  0  0  0
  7  8  1  0  0  0  0
  8  9  1  0  0  0  0
  9  3  1  0  0  0  0
  7  1  1  0  0  0  0
  2 10  2  0  0  0  0
  6 11  2  0  0  0  0
  5 12  1  0  0  0  0
  1 13  1  6  0  0  0
  5 14  1  6  0  0  0
M  END
>  <cdx:fragmentId>
5

$$$$
