9989926.cdx
  Mrv1902 05222410232D          

 13 13  0  0  0  0            999 V2000
    7.6007  -12.4153    0.0000 C   0  0  0  0  0  0  0  0  0  0  0  0
    7.6007  -13.2403    0.0000 C   0  0  0  0  0  0  0  0  0  0  0  0
    6.8863  -13.6528    0.0000 C   0  0  0  0  0  0  0  0  0  0  0  0
    6.1718  -13.2403    0.0000 C   0  0  0  0  0  0  0  0  0  0  0  0
    6.1718  -12.4153    0.0000 C   0  0  2  0  0  0  0  0  0  0  0  0
    6.8863  -12.0028    0.0000 C   0  0  0  0  0  0  0  0  0  0  0  0
    8.3152  -12.0028    0.0000 C   0  0  0  0  0  0  0  0  0  0  0  0
    8.3152  -11.1778    0.0000 O   0  0  0  0  0  0  0  0  0  0  0  0
    9.0297  -12.4153    0.0000 O   0  0  0  0  0  0  0  0  0  0  0  0
    6.4738  -14.3672    0.0000 C   0  0  0  0  0  0  0  0  0  0  0  0
    7.2988  -14.3672    0.0000 C   0  0  0  0  0  0  0  0  0  0  0  0
    8.3152  -13.6528    0.0000 C   0  0  0  0  0  0  0  0  0  0  0  0
    5.4573  -12.0028    0.0000 O   0  0  0  0  0  0  0  0  0  0  0  0
  1  2  2  0  0  0  0
  2  3  1  0  0  0  0
  3  4  1  0  0  0  0
  4  5  1  0  0  0  0
  5  6  1  0  0  0  0
  1  6  1  0  0  0  0
  7  8  2  0  0  0  0
  7  9  1  0  0  0  0
  1  7  1  0  0  0  0
  3 10  1  0  0  0  0
  3 11  1  0  0  0  0
  2 12  1  0  0  0  0
  5 13  1  1  0  0  0
M  END
>  <cdx:groupId>
34355

>  <cdx:fragmentId>
34319

$$$$
