98992.cdx
  Mrv1902 05222410242D          

107118  0  0  0  0            999 V2000
   17.9770   -5.5000    0.0000 C   0  0  0  0  0  0  0  0  0  0  0  0
   18.6915   -5.0875    0.0000 C   0  0  0  0  0  0  0  0  0  0  0  0
   19.4060   -5.5000    0.0000 C   0  0  0  0  0  0  0  0  0  0  0  0
   19.4060   -6.3250    0.0000 C   0  0  0  0  0  0  0  0  0  0  0  0
   18.6915   -6.7375    0.0000 C   0  0  2  0  0  0  0  0  0  0  0  0
   18.6915   -7.5625    0.0000 C   0  0  0  0  0  0  0  0  0  0  0  0
   17.9770   -7.9750    0.0000 C   0  0  0  0  0  0  0  0  0  0  0  0
   17.2625   -7.5625    0.0000 C   0  0  1  0  0  0  0  0  0  0  0  0
   16.5481   -7.9750    0.0000 C   0  0  2  0  0  0  0  0  0  0  0  0
   16.5481   -8.8000    0.0000 C   0  0  0  0  0  0  0  0  0  0  0  0
   15.8336   -9.2125    0.0000 C   0  0  0  0  0  0  0  0  0  0  0  0
   15.1191   -8.8000    0.0000 C   0  0  1  0  0  0  0  0  0  0  0  0
   14.4047   -9.2125    0.0000 C   0  0  0  0  0  0  0  0  0  0  0  0
   13.6902   -8.8000    0.0000 C   0  0  2  0  0  0  0  0  0  0  0  0
   13.6902   -7.9750    0.0000 C   0  0  0  0  0  0  0  0  0  0  0  0
   14.4047   -7.5625    0.0000 C   0  0  0  0  0  0  0  0  0  0  0  0
   15.1191   -7.9750    0.0000 C   0  0  2  0  0  0  0  0  0  0  0  0
   15.8336   -7.5625    0.0000 C   0  0  1  0  0  0  0  0  0  0  0  0
   15.8336   -6.7375    0.0000 C   0  0  0  0  0  0  0  0  0  0  0  0
   16.5481   -6.3250    0.0000 C   0  0  0  0  0  0  0  0  0  0  0  0
   17.2625   -6.7375    0.0000 C   0  0  0  0  0  0  0  0  0  0  0  0
   17.9770   -6.3250    0.0000 C   0  0  2  0  0  0  0  0  0  0  0  0
   19.4060   -7.1500    0.0000 C   0  0  0  0  0  0  0  0  0  0  0  0
   19.4060   -7.9750    0.0000 O   0  0  0  0  0  0  0  0  0  0  0  0
   14.8172   -9.9269    0.0000 C   0  0  0  0  0  0  0  0  0  0  0  0
   13.9922   -9.9269    0.0000 C   0  0  0  0  0  0  0  0  0  0  0  0
   18.2790   -4.3730    0.0000 C   0  0  0  0  0  0  0  0  0  0  0  0
   19.1040   -4.3730    0.0000 C   0  0  0  0  0  0  0  0  0  0  0  0
   12.9757   -9.2125    0.0000 O   0  0  0  0  0  0  0  0  0  0  0  0
   12.2612   -7.9750    0.0000 O   0  0  0  0  0  0  0  0  0  0  0  0
   12.2612   -8.8000    0.0000 C   0  0  2  0  0  0  0  0  0  0  0  0
   11.5468   -9.2125    0.0000 C   0  0  1  0  0  0  0  0  0  0  0  0
   10.8323   -8.8000    0.0000 C   0  0  2  0  0  0  0  0  0  0  0  0
   10.8323   -7.9750    0.0000 C   0  0  2  0  0  0  0  0  0  0  0  0
   11.5468   -7.5625    0.0000 C   0  0  0  0  0  0  0  0  0  0  0  0
   10.1178   -7.5625    0.0000 O   0  0  0  0  0  0  0  0  0  0  0  0
   10.1178   -9.2125    0.0000 O   0  0  0  0  0  0  0  0  0  0  0  0
   11.5468  -10.0375    0.0000 O   0  0  0  0  0  0  0  0  0  0  0  0
   10.1178  -10.0375    0.0000 O   0  0  0  0  0  0  0  0  0  0  0  0
   10.8323  -10.4500    0.0000 C   0  0  2  0  0  0  0  0  0  0  0  0
   10.8323  -11.2750    0.0000 C   0  0  1  0  0  0  0  0  0  0  0  0
   10.1178  -11.6875    0.0000 C   0  0  1  0  0  0  0  0  0  0  0  0
    9.4034  -11.2750    0.0000 C   0  0  2  0  0  0  0  0  0  0  0  0
    9.4034  -10.4500    0.0000 C   0  0  2  0  0  0  0  0  0  0  0  0
    8.6889  -10.0375    0.0000 C   0  0  0  0  0  0  0  0  0  0  0  0
    8.6889  -11.6875    0.0000 O   0  0  0  0  0  0  0  0  0  0  0  0
   11.5468  -11.6875    0.0000 O   0  0  0  0  0  0  0  0  0  0  0  0
    7.2516  -14.1454    0.0000 O   0  0  0  0  0  0  0  0  0  0  0  0
    6.5507  -12.9001    0.0000 O   0  0  0  0  0  0  0  0  0  0  0  0
    6.5417  -13.7251    0.0000 C   0  0  2  0  0  0  0  0  0  0  0  0
    5.8227  -14.1298    0.0000 C   0  0  1  0  0  0  0  0  0  0  0  0
    5.1128  -13.7095    0.0000 C   0  0  2  0  0  0  0  0  0  0  0  0
    5.1218  -12.8846    0.0000 C   0  0  1  0  0  0  0  0  0  0  0  0
    5.8407  -12.4799    0.0000 C   0  0  1  0  0  0  0  0  0  0  0  0
    5.8497  -11.6549    0.0000 C   0  0  0  0  0  0  0  0  0  0  0  0
    5.1353  -11.2424    0.0000 O   0  0  0  0  0  0  0  0  0  0  0  0
    4.3939  -14.1142    0.0000 O   0  0  0  0  0  0  0  0  0  0  0  0
    5.8137  -14.9547    0.0000 O   0  0  0  0  0  0  0  0  0  0  0  0
    4.4119  -12.4643    0.0000 O   0  0  0  0  0  0  0  0  0  0  0  0
   15.1191   -9.6250    0.0000 H   0  0  0  0  0  0  0  0  0  0  0  0
   17.9770   -7.1500    0.0000 H   0  0  0  0  0  0  0  0  0  0  0  0
   22.2709   -9.6197    0.0000 O   0  0  0  0  0  0  0  0  0  0  0  0
   21.5401  -10.8476    0.0000 O   0  0  0  0  0  0  0  0  0  0  0  0
   22.2600  -10.4446    0.0000 C   0  0  2  0  0  0  0  0  0  0  0  0
   22.9690  -10.8665    0.0000 C   0  0  1  0  0  0  0  0  0  0  0  0
   22.9580  -11.6915    0.0000 C   0  0  2  0  0  0  0  0  0  0  0  0
   22.2382  -12.0945    0.0000 C   0  0  1  0  0  0  0  0  0  0  0  0
   21.5292  -11.6726    0.0000 C   0  0  1  0  0  0  0  0  0  0  0  0
   20.8094  -12.0756    0.0000 C   0  0  0  0  0  0  0  0  0  0  0  0
   20.0949  -11.6631    0.0000 O   0  0  0  0  0  0  0  0  0  0  0  0
   23.6670  -12.1134    0.0000 O   0  0  0  0  0  0  0  0  0  0  0  0
   23.6888  -10.4635    0.0000 O   0  0  0  0  0  0  0  0  0  0  0  0
   10.1178  -14.1625    0.0000 O   0  0  0  0  0  0  0  0  0  0  0  0
    7.9744  -12.9250    0.0000 C   0  0  0  0  0  0  0  0  0  0  0  0
    7.9744  -13.7500    0.0000 C   0  0  2  0  0  0  0  0  0  0  0  0
    8.6889  -14.1625    0.0000 C   0  0  2  0  0  0  0  0  0  0  0  0
    9.4034  -13.7500    0.0000 C   0  0  2  0  0  0  0  0  0  0  0  0
    9.4034  -12.9250    0.0000 C   0  0  1  0  0  0  0  0  0  0  0  0
    8.6889  -12.5125    0.0000 O   0  0  0  0  0  0  0  0  0  0  0  0
   10.1178  -12.5125    0.0000 O   0  0  0  0  0  0  0  0  0  0  0  0
   22.2290  -14.5694    0.0000 O   0  0  0  0  0  0  0  0  0  0  0  0
   20.8009  -15.3959    0.0000 O   0  0  0  0  0  0  0  0  0  0  0  0
   19.3711  -14.5724    0.0000 O   0  0  0  0  0  0  0  0  0  0  0  0
   19.3694  -12.9224    0.0000 C   0  0  0  0  0  0  0  0  0  0  0  0
   20.0843  -13.3341    0.0000 C   0  0  1  0  0  0  0  0  0  0  0  0
   20.0851  -14.1591    0.0000 C   0  0  1  0  0  0  0  0  0  0  0  0
   20.8000  -14.5709    0.0000 C   0  0  2  0  0  0  0  0  0  0  0  0
   21.5141  -14.1577    0.0000 C   0  0  2  0  0  0  0  0  0  0  0  0
   21.5132  -13.3327    0.0000 C   0  0  1  0  0  0  0  0  0  0  0  0
   20.7983  -12.9209    0.0000 O   0  0  0  0  0  0  0  0  0  0  0  0
   22.2273  -12.9194    0.0000 O   0  0  0  0  0  0  0  0  0  0  0  0
   21.5555   -9.2090    0.0000 C   0  0  0  0  0  0  0  0  0  0  0  0
   21.5473   -5.9090    0.0000 O   0  0  0  0  0  0  0  0  0  0  0  0
   22.9783   -6.7304    0.0000 O   0  0  0  0  0  0  0  0  0  0  0  0
   22.9824   -8.3804    0.0000 O   0  0  0  0  0  0  0  0  0  0  0  0
   21.5534   -8.3840    0.0000 C   0  0  2  0  0  0  0  0  0  0  0  0
   22.2669   -7.9697    0.0000 C   0  0  2  0  0  0  0  0  0  0  0  0
   22.2648   -7.1447    0.0000 C   0  0  1  0  0  0  0  0  0  0  0  0
   21.5494   -6.7340    0.0000 C   0  0  2  0  0  0  0  0  0  0  0  0
   20.8359   -7.1482    0.0000 C   0  0  1  0  0  0  0  0  0  0  0  0
   20.8379   -7.9732    0.0000 O   0  0  0  0  0  0  0  0  0  0  0  0
   20.1204   -6.7375    0.0000 O   0  0  0  0  0  0  0  0  0  0  0  0
   15.1191   -7.1500    0.0000 C   0  0  0  0  0  0  0  0  0  0  0  0
   16.5481   -7.1500    0.0000 C   0  0  0  0  0  0  0  0  0  0  0  0
   17.2625   -8.3875    0.0000 C   0  0  0  0  0  0  0  0  0  0  0  0
   15.8336   -8.3875    0.0000 H   0  0  0  0  0  0  0  0  0  0  0  0
    8.6889  -14.9875    0.0000 O   0  0  0  0  0  0  0  0  0  0  0  0
100102  1  1  0  0  0
 78 80  1  1  0  0  0
 49 50  1  0  0  0  0
 50 51  1  0  0  0  0
 77 73  1  6  0  0  0
 79 74  1  0  0  0  0
 75 74  1  0  0  0  0
 76 75  1  0  0  0  0
 96 92  1  1  0  0  0
 92 62  1  0  0  0  0
 89 91  1  1  0  0  0
 88 81  1  6  0  0  0
 87 82  1  6  0  0  0
 86 83  1  1  0  0  0
 85 84  1  6  0  0  0
 90 85  1  0  0  0  0
 86 85  1  0  0  0  0
 87 86  1  0  0  0  0
 88 87  1  0  0  0  0
 89 88  1  0  0  0  0
 90 89  1  0  0  0  0
 63 64  1  0  0  0  0
 99 93  1  6  0  0  0
 98 94  1  1  0  0  0
 97 95  1  6  0  0  0
101 96  1  0  0  0  0
 97 96  1  0  0  0  0
 98 97  1  0  0  0  0
 99 98  1  0  0  0  0
  1  2  1  0  0  0  0
  2  3  1  0  0  0  0
  3  4  1  0  0  0  0
  4  5  1  0  0  0  0
  5  6  1  0  0  0  0
  6  7  1  0  0  0  0
  7  8  1  0  0  0  0
  8  9  1  0  0  0  0
  9 10  1  0  0  0  0
 10 11  1  0  0  0  0
 11 12  1  0  0  0  0
 12 13  1  0  0  0  0
 13 14  1  0  0  0  0
 14 15  1  0  0  0  0
 15 16  1  0  0  0  0
 16 17  1  0  0  0  0
 12 17  1  0  0  0  0
 17 18  1  0  0  0  0
  9 18  1  0  0  0  0
 18 19  1  0  0  0  0
 19 20  1  0  0  0  0
 20 21  2  0  0  0  0
  8 21  1  0  0  0  0
 21 22  1  0  0  0  0
  5 22  1  0  0  0  0
  1 22  1  0  0  0  0
 23 24  2  0  0  0  0
 23102  1  0  0  0  0
  5 23  1  1  0  0  0
 13 25  1  0  0  0  0
 13 26  1  0  0  0  0
  2 27  1  0  0  0  0
  2 28  1  0  0  0  0
 30 31  1  0  0  0  0
 31 32  1  0  0  0  0
 32 33  1  0  0  0  0
 33 34  1  0  0  0  0
 34 35  1  0  0  0  0
 30 35  1  0  0  0  0
 34 36  1  1  0  0  0
 33 37  1  1  0  0  0
 39 40  1  0  0  0  0
 40 41  1  0  0  0  0
 41 42  1  0  0  0  0
 42 43  1  0  0  0  0
 43 44  1  0  0  0  0
 39 44  1  0  0  0  0
 44 45  1  6  0  0  0
 43 46  1  1  0  0  0
 41 47  1  6  0  0  0
 77 76  1  0  0  0  0
 78 77  1  0  0  0  0
 79 78  1  0  0  0  0
 51 52  1  0  0  0  0
 52 53  1  0  0  0  0
 53 54  1  0  0  0  0
 49 54  1  0  0  0  0
 55 56  1  0  0  0  0
 54 55  1  1  0  0  0
 52 57  1  1  0  0  0
 51 58  1  6  0  0  0
 53 59  1  6  0  0  0
 50 48  1  1  0  0  0
 42 80  1  6  0  0  0
 40 38  1  1  0  0  0
 32 38  1  6  0  0  0
 31 29  1  1  0  0  0
 14 29  1  1  0  0  0
 12 60  1  6  0  0  0
 22 61  1  1  0  0  0
100 99  1  0  0  0  0
101100  1  0  0  0  0
 64 65  1  0  0  0  0
 65 66  1  0  0  0  0
 66 67  1  0  0  0  0
 67 68  1  0  0  0  0
 63 68  1  0  0  0  0
 67 91  1  6  0  0  0
 69 70  1  0  0  0  0
 68 69  1  1  0  0  0
 66 71  1  1  0  0  0
 65 72  1  6  0  0  0
 64 62  1  1  0  0  0
 17103  1  1  0  0  0
  9104  1  1  0  0  0
  8105  1  6  0  0  0
 18106  1  6  0  0  0
 76107  1  6  0  0  0
 75 48  1  6  0  0  0
M  END
>  <cdx:groupId>
181687

>  <cdx:fragmentId>
181457

$$$$
