98998.cdx
  Mrv1902 05222410212D          

 31 35  0  0  0  0            999 V2000
   10.4785   -8.4521    0.0000 C   0  0  0  0  0  0  0  0  0  0  0  0
    9.7627   -8.8623    0.0000 C   0  0  0  0  0  0  0  0  0  0  0  0
    7.6153  -10.0930    0.0000 C   0  0  0  0  0  0  0  0  0  0  0  0
    5.4680  -11.3237    0.0000 C   0  0  0  0  0  0  0  0  0  0  0  0
    3.2193   -9.6665    0.0000 C   0  0  0  0  0  0  0  0  0  0  0  0
    3.6341   -8.9533    0.0000 C   0  0  0  0  0  0  0  0  0  0  0  0
    8.3337   -8.8578    0.0000 C   0  0  0  0  0  0  0  0  0  0  0  0
   10.4837   -6.8021    0.0000 O   0  0  0  0  0  0  0  0  0  0  0  0
    8.3364   -8.0328    0.0000 C   0  0  0  0  0  0  0  0  0  0  0  0
    7.6206   -8.4430    0.0000 C   0  0  1  0  0  0  0  0  0  0  0  0
    6.9074   -8.0282    0.0000 C   0  0  0  0  0  0  0  0  0  0  0  0
    6.1917   -8.4385    0.0000 C   0  0  0  0  0  0  0  0  0  0  0  0
    6.1890   -9.2635    0.0000 C   0  0  1  0  0  0  0  0  0  0  0  0
    5.4732   -9.6737    0.0000 C   0  0  0  0  0  0  0  0  0  0  0  0
    4.7601   -9.2589    0.0000 C   0  0  0  0  0  0  0  0  0  0  0  0
    4.0443   -9.6691    0.0000 C   0  0  0  0  0  0  0  0  0  0  0  0
    4.0417  -10.4941    0.0000 C   0  0  0  0  0  0  0  0  0  0  0  0
    4.7548  -10.9089    0.0000 C   0  0  0  0  0  0  0  0  0  0  0  0
    5.4706  -10.4987    0.0000 C   0  0  1  0  0  0  0  0  0  0  0  0
    6.1838  -10.9134    0.0000 C   0  0  0  0  0  0  0  0  0  0  0  0
    6.8996  -10.5032    0.0000 C   0  0  0  0  0  0  0  0  0  0  0  0
    6.9022   -9.6782    0.0000 C   0  0  1  0  0  0  0  0  0  0  0  0
    7.6180   -9.2680    0.0000 C   0  0  0  0  0  0  0  0  0  0  0  0
    8.3311   -9.6828    0.0000 C   0  0  0  0  0  0  0  0  0  0  0  0
    9.0469   -9.2726    0.0000 C   0  0  0  0  0  0  0  0  0  0  0  0
    9.0495   -8.4476    0.0000 C   0  0  1  0  0  0  0  0  0  0  0  0
    9.7653   -8.0373    0.0000 C   0  0  2  0  0  0  0  0  0  0  0  0
    9.7679   -7.2123    0.0000 C   0  0  0  0  0  0  0  0  0  0  0  0
    9.0548   -6.7976    0.0000 C   0  0  0  0  0  0  0  0  0  0  0  0
    8.3390   -7.2078    0.0000 C   0  0  0  0  0  0  0  0  0  0  0  0
    5.4746   -8.8510    0.0000 C   0  0  0  0  0  0  0  0  0  0  0  0
 27  1  1  6  0  0  0
 26  2  1  6  0  0  0
 22  3  1  6  0  0  0
 19  4  1  6  0  0  0
 16  5  1  0  0  0  0
 16  6  1  0  0  0  0
 10  7  1  6  0  0  0
 28  8  1  0  0  0  0
 30  9  1  0  0  0  0
 26  9  1  0  0  0  0
 10  9  1  0  0  0  0
 23 10  1  0  0  0  0
 11 10  1  0  0  0  0
 12 11  1  0  0  0  0
 13 12  1  0  0  0  0
 22 13  1  0  0  0  0
 14 13  1  0  0  0  0
 19 14  1  0  0  0  0
 15 14  1  0  0  0  0
 16 15  1  0  0  0  0
 17 16  1  0  0  0  0
 18 17  1  0  0  0  0
 19 18  1  0  0  0  0
 20 19  1  0  0  0  0
 21 20  1  0  0  0  0
 22 21  1  0  0  0  0
 23 22  1  0  0  0  0
 24 23  1  0  0  0  0
 25 24  1  0  0  0  0
 26 25  1  0  0  0  0
 27 26  1  0  0  0  0
 28 27  1  0  0  0  0
 29 28  1  0  0  0  0
 30 29  1  0  0  0  0
 13 31  1  1  0  0  0
M  END
>  <cdx:fragmentId>
5

$$$$
