99.cdx
  Mrv1902 05222410212D          

 31 35  0  0  0  0            999 V2000
    5.1565   -7.8856    0.0000 C   0  0  0  0  0  0  0  0  0  0  0  0
    5.1565   -8.5456    0.0000 C   0  0  1  0  0  0  0  0  0  0  0  0
    5.7281   -8.8756    0.0000 C   0  0  0  0  0  0  0  0  0  0  0  0
    6.2997   -8.5456    0.0000 C   0  0  2  0  0  0  0  0  0  0  0  0
    6.2997   -7.8856    0.0000 C   0  0  2  0  0  0  0  0  0  0  0  0
    5.7281   -7.5556    0.0000 C   0  0  0  0  0  0  0  0  0  0  0  0
    6.8713   -8.8756    0.0000 C   0  0  0  0  0  0  0  0  0  0  0  0
    7.4428   -8.5456    0.0000 C   0  0  0  0  0  0  0  0  0  0  0  0
    7.4428   -7.8856    0.0000 C   0  0  2  0  0  0  0  0  0  0  0  0
    6.8713   -7.5556    0.0000 C   0  0  0  0  0  0  0  0  0  0  0  0
    8.0144   -7.5556    0.0000 C   0  0  2  0  0  0  0  0  0  0  0  0
    8.0144   -6.8956    0.0000 C   0  0  2  0  0  0  0  0  0  0  0  0
    7.4428   -6.5656    0.0000 C   0  0  0  0  0  0  0  0  0  0  0  0
    6.8713   -6.8956    0.0000 C   0  0  0  0  0  0  0  0  0  0  0  0
    8.6421   -7.7595    0.0000 C   0  0  0  0  0  0  0  0  0  0  0  0
    9.0301   -7.2256    0.0000 C   0  0  0  0  0  0  0  0  0  0  0  0
    8.6421   -6.6916    0.0000 C   0  0  2  0  0  0  0  0  0  0  0  0
    8.8461   -6.0639    0.0000 C   0  0  0  0  0  0  0  0  0  0  0  0
    9.4916   -5.9267    0.0000 C   0  0  0  0  0  0  0  0  0  0  0  0
    8.4044   -5.5735    0.0000 C   0  0  0  0  0  0  0  0  0  0  0  0
    9.6956   -5.2990    0.0000 C   0  0  0  0  0  0  0  0  0  0  0  0
    8.6084   -4.9458    0.0000 O   0  0  0  0  0  0  0  0  0  0  0  0
    9.2540   -4.8085    0.0000 C   0  0  0  0  0  0  0  0  0  0  0  0
    9.4579   -4.1808    0.0000 O   0  0  0  0  0  0  0  0  0  0  0  0
    4.5850   -8.8756    0.0000 O   0  0  0  0  0  0  0  0  0  0  0  0
    6.2997   -7.2256    0.0000 C   0  0  0  0  0  0  0  0  0  0  0  0
    6.2997   -9.2056    0.0000 O   0  0  0  0  0  0  0  0  0  0  0  0
    8.0834   -6.2392    0.0000 C   0  0  0  0  0  0  0  0  0  0  0  0
    8.0834   -8.2120    0.0000 O   0  0  0  0  0  0  0  0  0  0  0  0
    6.2997   -6.5656    0.0000 O   0  0  0  0  0  0  0  0  0  0  0  0
    7.4428   -7.2256    0.0000 H   0  0  0  0  0  0  0  0  0  0  0  0
  1  2  1  0  0  0  0
  2  3  1  0  0  0  0
  3  4  1  0  0  0  0
  4  5  1  0  0  0  0
  5  6  1  0  0  0  0
  6  1  1  0  0  0  0
  4  7  1  0  0  0  0
  7  8  1  0  0  0  0
  8  9  1  0  0  0  0
  9 10  1  0  0  0  0
 10  5  1  0  0  0  0
  9 11  1  0  0  0  0
 11 12  1  0  0  0  0
 12 13  1  0  0  0  0
 13 14  1  0  0  0  0
 14 10  2  0  0  0  0
 11 15  1  0  0  0  0
 15 16  1  0  0  0  0
 16 17  1  0  0  0  0
 17 12  1  0  0  0  0
 17 18  1  1  0  0  0
 18 19  1  0  0  0  0
 18 20  2  0  0  0  0
 19 21  2  0  0  0  0
 20 22  1  0  0  0  0
 21 23  1  0  0  0  0
 22 23  1  0  0  0  0
 23 24  2  0  0  0  0
  2 25  1  1  0  0  0
  5 26  1  1  0  0  0
  4 27  1  1  0  0  0
 12 28  1  1  0  0  0
 11 29  1  1  0  0  0
 14 30  1  1  0  0  0
  9 31  1  1  0  0  0
M  END
>  <cdx:fragmentId>
287

$$$$
