99007.cdx
  Mrv1902 05222410182D          

 60 66  0  0  0  0            999 V2000
    6.5062   -6.1589    0.0000 O   0  0  0  0  0  0  0  0  0  0  0  0
    7.2383   -6.5844    0.0000 C   0  0  0  0  0  0  0  0  0  0  0  0
    7.2374   -7.4094    0.0000 C   0  0  0  0  0  0  0  0  0  0  0  0
    7.9515   -7.8227    0.0000 C   0  0  0  0  0  0  0  0  0  0  0  0
    7.9506   -8.6477    0.0000 C   0  0  0  0  0  0  0  0  0  0  0  0
    7.9532   -6.1727    0.0000 O   0  0  0  0  0  0  0  0  0  0  0  0
    5.9313   -4.6384    0.0000 C   0  0  2  0  0  0  0  0  0  0  0  0
    6.2914   -5.3807    0.0000 C   0  0  2  0  0  0  0  0  0  0  0  0
    5.9356   -6.1250    0.0000 C   0  0  1  0  0  0  0  0  0  0  0  0
    5.1318   -6.3110    0.0000 C   0  0  1  0  0  0  0  0  0  0  0  0
    4.4853   -5.7985    0.0000 C   0  0  1  0  0  0  0  0  0  0  0  0
    4.4829   -4.9735    0.0000 C   0  0  2  0  0  0  0  0  0  0  0  0
    5.1264   -4.4572    0.0000 C   0  0  2  0  0  0  0  0  0  0  0  0
    3.7721   -6.2130    0.0000 C   0  0  2  0  0  0  0  0  0  0  0  0
    3.0564   -5.8026    0.0000 C   0  0  0  0  0  0  0  0  0  0  0  0
    3.0540   -4.9776    0.0000 C   0  0  0  0  0  0  0  0  0  0  0  0
    3.7672   -4.5630    0.0000 C   0  0  2  0  0  0  0  0  0  0  0  0
    5.0501   -3.6357    0.0000 C   0  0  0  0  0  0  0  0  0  0  0  0
    5.8077   -3.3093    0.0000 C   0  0  1  0  0  0  0  0  0  0  0  0
    6.3523   -3.9290    0.0000 C   0  0  2  0  0  0  0  0  0  0  0  0
    3.7745   -7.0380    0.0000 C   0  0  0  0  0  0  0  0  0  0  0  0
    3.0612   -7.4526    0.0000 O   0  0  0  0  0  0  0  0  0  0  0  0
    3.0636   -8.2776    0.0000 C   0  0  0  0  0  0  0  0  0  0  0  0
    4.4825   -4.3175    0.0000 C   0  0  0  0  0  0  0  0  0  0  0  0
    3.7675   -5.3350    0.0000 N   0  0  0  0  0  0  0  0  0  0  0  0
    3.0525   -6.5175    0.0000 C   0  0  0  0  0  0  0  0  0  0  0  0
    7.0900   -5.1735    0.0000 C   0  0  2  0  0  0  0  0  0  0  0  0
    7.1225   -3.4925    0.0000 C   0  0  2  0  0  0  0  0  0  0  0  0
    7.8375   -3.9325    0.0000 O   0  0  0  0  0  0  0  0  0  0  0  0
    4.4787   -6.6234    0.0000 H   0  0  0  0  0  0  0  0  0  0  0  0
    4.5431   -3.8738    0.0000 H   0  0  0  0  0  0  0  0  0  0  0  0
    6.7562   -4.6450    0.0000 H   0  0  0  0  0  0  0  0  0  0  0  0
    5.9356   -6.9500    0.0000 H   0  0  0  0  0  0  0  0  0  0  0  0
    2.5850   -5.3350    0.0000 C   0  0  0  0  0  0  0  0  0  0  0  0
    7.8370   -3.0800    0.0000 O   0  0  0  0  0  0  0  0  0  0  0  0
    7.8370   -2.2550    0.0000 C   0  0  0  0  0  0  0  0  0  0  0  0
    5.1318   -7.1360    0.0000 O   0  0  0  0  0  0  0  0  0  0  0  0
    4.4174   -7.5485    0.0000 C   0  0  0  0  0  0  0  0  0  0  0  0
    8.5520   -4.3450    0.0000 C   0  0  0  0  0  0  0  0  0  0  0  0
    9.2664   -3.9325    0.0000 C   0  0  0  0  0  0  0  0  0  0  0  0
    8.5520   -5.1700    0.0000 O   0  0  0  0  0  0  0  0  0  0  0  0
    9.9809   -4.3450    0.0000 C   0  0  0  0  0  0  0  0  0  0  0  0
   10.6954   -3.9325    0.0000 C   0  0  0  0  0  0  0  0  0  0  0  0
   10.6954   -3.1075    0.0000 C   0  0  0  0  0  0  0  0  0  0  0  0
    9.9809   -2.6950    0.0000 C   0  0  0  0  0  0  0  0  0  0  0  0
    9.2664   -3.1075    0.0000 C   0  0  0  0  0  0  0  0  0  0  0  0
    7.8868   -5.3871    0.0000 O   0  0  0  0  0  0  0  0  0  0  0  0
    5.8077   -2.4843    0.0000 O   0  0  0  0  0  0  0  0  0  0  0  0
    3.7648   -3.7381    0.0000 O   0  0  0  0  0  0  0  0  0  0  0  0
    3.0504   -3.3256    0.0000 C   0  0  0  0  0  0  0  0  0  0  0  0
    8.6646   -9.0609    0.0000 C   0  0  0  0  0  0  0  0  0  0  0  0
    8.6637   -9.8859    0.0000 C   0  0  0  0  0  0  0  0  0  0  0  0
    9.3778  -10.2992    0.0000 C   0  0  0  0  0  0  0  0  0  0  0  0
    9.3769  -11.1242    0.0000 C   0  0  0  0  0  0  0  0  0  0  0  0
   10.0909  -11.5375    0.0000 C   0  0  0  0  0  0  0  0  0  0  0  0
   10.0900  -12.3625    0.0000 C   0  0  0  0  0  0  0  0  0  0  0  0
   10.8041  -12.7757    0.0000 C   0  0  0  0  0  0  0  0  0  0  0  0
   10.8032  -13.6007    0.0000 C   0  0  0  0  0  0  0  0  0  0  0  0
   11.5172  -14.0140    0.0000 C   0  0  0  0  0  0  0  0  0  0  0  0
   11.5163  -14.8390    0.0000 C   0  0  0  0  0  0  0  0  0  0  0  0
  2  3  1  0  0  0  0
  3  4  2  0  0  0  0
  4  5  1  0  0  0  0
  2  6  2  0  0  0  0
  2  1  1  0  0  0  0
  7  8  1  0  0  0  0
  8  9  1  0  0  0  0
  9 10  1  0  0  0  0
 10 11  1  0  0  0  0
 11 12  1  0  0  0  0
 12 13  1  0  0  0  0
 13  7  1  0  0  0  0
 11 14  1  0  0  0  0
 14 15  1  0  0  0  0
 15 16  1  0  0  0  0
 16 17  1  0  0  0  0
 12 17  1  1  0  0  0
 13 18  1  0  0  0  0
 18 19  1  0  0  0  0
 19 20  1  0  0  0  0
 20  7  1  0  0  0  0
 14 21  1  1  0  0  0
 21 22  1  0  0  0  0
 22 23  1  0  0  0  0
 12 24  1  0  0  0  0
  9 24  1  0  0  0  0
 24 25  1  0  0  0  0
 25 26  1  0  0  0  0
 14 26  1  0  0  0  0
  8 27  1  0  0  0  0
 19 28  1  0  0  0  0
 28 27  1  0  0  0  0
 20 29  1  6  0  0  0
 11 30  1  1  0  0  0
 13 31  1  1  0  0  0
  7 32  1  1  0  0  0
  9 33  1  6  0  0  0
 25 34  1  0  0  0  0
 28 35  1  1  0  0  0
 35 36  1  0  0  0  0
 10 37  1  6  0  0  0
 37 38  1  0  0  0  0
 29 39  1  0  0  0  0
 39 40  1  0  0  0  0
 39 41  2  0  0  0  0
 40 42  2  0  0  0  0
 42 43  1  0  0  0  0
 43 44  2  0  0  0  0
 44 45  1  0  0  0  0
 45 46  2  0  0  0  0
 46 40  1  0  0  0  0
 27 47  1  6  0  0  0
  8  1  1  1  0  0  0
 19 48  1  1  0  0  0
 17 49  1  6  0  0  0
 49 50  1  0  0  0  0
  5 51  1  0  0  0  0
 51 52  1  0  0  0  0
 52 53  1  0  0  0  0
 53 54  1  0  0  0  0
 54 55  1  0  0  0  0
 55 56  1  0  0  0  0
 56 57  1  0  0  0  0
 57 58  1  0  0  0  0
 58 59  1  0  0  0  0
 59 60  1  0  0  0  0
M  END
>  <cdx:fragmentId>
220

$$$$
