99000.cdx
  Mrv1902 05222410202D          

 27 30  0  0  0  0            999 V2000
    7.1741  -10.9203    0.0000 N   0  0  0  0  0  0  0  0  0  0  0  0
    7.8886  -10.5078    0.0000 C   0  0  0  0  0  0  0  0  0  0  0  0
    7.8886   -9.6828    0.0000 C   0  0  0  0  0  0  0  0  0  0  0  0
    7.1741   -9.2703    0.0000 C   0  0  0  0  0  0  0  0  0  0  0  0
    6.4596   -9.6828    0.0000 C   0  0  0  0  0  0  0  0  0  0  0  0
    5.7452   -9.2703    0.0000 C   0  0  0  0  0  0  0  0  0  0  0  0
    5.0307   -9.6828    0.0000 C   0  0  0  0  0  0  0  0  0  0  0  0
    5.0307  -10.5078    0.0000 C   0  0  0  0  0  0  0  0  0  0  0  0
    5.7452  -10.9203    0.0000 C   0  0  0  0  0  0  0  0  0  0  0  0
    6.4596  -10.5078    0.0000 C   0  0  0  0  0  0  0  0  0  0  0  0
    8.6030  -10.9203    0.0000 O   0  0  0  0  0  0  0  0  0  0  0  0
    4.3162   -9.2703    0.0000 O   0  0  0  0  0  0  0  0  0  0  0  0
    3.6017   -9.6828    0.0000 C   0  0  0  0  0  0  0  0  0  0  0  0
   11.1864   -7.2078    0.0000 C   0  0  0  0  0  0  0  0  0  0  0  0
   10.4720   -6.7953    0.0000 C   0  0  0  0  0  0  0  0  0  0  0  0
    8.6900   -6.1325    0.0000 C   0  0  0  0  0  0  0  0  0  0  0  0
    7.7825   -6.4900    0.0000 C   0  0  0  0  0  0  0  0  0  0  0  0
    9.5975   -7.8925    0.0000 C   0  0  0  0  0  0  0  0  0  0  0  0
    9.7575   -7.2078    0.0000 C   0  0  1  0  0  0  0  0  0  0  0  0
    9.0200   -6.8750    0.0000 C   0  0  2  0  0  0  0  0  0  0  0  0
    8.6075   -8.3325    0.0000 C   0  0  0  0  0  0  0  0  0  0  0  0
    7.8886   -8.0328    0.0000 C   0  0  2  0  0  0  0  0  0  0  0  0
    8.1675   -7.3150    0.0000 N   0  0  0  0  0  0  0  0  0  0  0  0
    6.4596   -8.0328    0.0000 O   0  0  0  0  0  0  0  0  0  0  0  0
    7.1741   -8.4453    0.0000 C   0  0  2  0  0  0  0  0  0  0  0  0
    7.8886   -8.8578    0.0000 H   0  0  0  0  0  0  0  0  0  0  0  0
    9.6034   -6.2916    0.0000 H   0  0  0  0  0  0  0  0  0  0  0  0
 25 22  1  0  0  0  0
 19 15  1  1  0  0  0
 15 14  2  0  0  0  0
 20 16  1  0  0  0  0
 23 17  1  0  0  0  0
 23 18  1  0  0  0  0
 17 16  1  0  0  0  0
 19 18  1  0  0  0  0
 20 19  1  0  0  0  0
 21 20  1  0  0  0  0
 22 21  1  0  0  0  0
 23 22  1  0  0  0  0
  1  2  1  0  0  0  0
  2  3  1  0  0  0  0
  3  4  1  0  0  0  0
  4  5  2  0  0  0  0
  5  6  1  0  0  0  0
  6  7  2  0  0  0  0
  7  8  1  0  0  0  0
  8  9  2  0  0  0  0
  9 10  1  0  0  0  0
  1 10  2  0  0  0  0
  5 10  1  0  0  0  0
  2 11  2  0  0  0  0
 12 13  1  0  0  0  0
  7 12  1  0  0  0  0
 25 24  1  1  0  0  0
  4 25  1  0  0  0  0
 22 26  1  6  0  0  0
 20 27  1  1  0  0  0
M  END
>  <cdx:fragmentId>
115

$$$$
