99001.cdx
  Mrv1902 05222410202D          

 30 33  0  0  0  0            999 V2000
    4.9990  -10.3648    0.0000 C   0  0  0  0  0  0  0  0  0  0  0  0
    4.2846  -10.7773    0.0000 C   0  0  0  0  0  0  0  0  0  0  0  0
    4.2846  -11.6023    0.0000 C   0  0  0  0  0  0  0  0  0  0  0  0
    4.9990  -12.0148    0.0000 C   0  0  0  0  0  0  0  0  0  0  0  0
    5.7135  -11.6023    0.0000 C   0  0  0  0  0  0  0  0  0  0  0  0
    6.4280  -12.0148    0.0000 C   0  0  0  0  0  0  0  0  0  0  0  0
    7.1424  -11.6023    0.0000 C   0  0  0  0  0  0  0  0  0  0  0  0
    7.1424  -10.7773    0.0000 C   0  0  1  0  0  0  0  0  0  0  0  0
    7.8569  -10.3648    0.0000 C   0  0  2  0  0  0  0  0  0  0  0  0
    8.6415  -10.6198    0.0000 C   0  0  0  0  0  0  0  0  0  0  0  0
    9.1265   -9.9523    0.0000 C   0  0  2  0  0  0  0  0  0  0  0  0
    8.6415   -9.2849    0.0000 C   0  0  2  0  0  0  0  0  0  0  0  0
    7.8569   -9.5398    0.0000 C   0  0  1  0  0  0  0  0  0  0  0  0
    7.1424   -9.1273    0.0000 C   0  0  0  0  0  0  0  0  0  0  0  0
    6.4280   -9.5398    0.0000 C   0  0  1  0  0  0  0  0  0  0  0  0
    6.4280  -10.3648    0.0000 C   0  0  2  0  0  0  0  0  0  0  0  0
    5.7135  -10.7773    0.0000 C   0  0  1  0  0  0  0  0  0  0  0  0
    3.5701  -12.0148    0.0000 O   0  0  0  0  0  0  0  0  0  0  0  0
    9.9515   -9.9523    0.0000 C   0  0  0  0  0  0  0  0  0  0  0  0
    7.8569   -8.7148    0.0000 C   0  0  0  0  0  0  0  0  0  0  0  0
    5.7135   -9.9523    0.0000 C   0  0  0  0  0  0  0  0  0  0  0  0
    8.4700   -8.4779    0.0000 O   0  0  0  0  0  0  0  0  0  0  0  0
    5.7135   -9.1273    0.0000 O   0  0  0  0  0  0  0  0  0  0  0  0
    6.4280  -11.1898    0.0000 F   0  0  0  0  0  0  0  0  0  0  0  0
   10.0393   -8.9878    0.0000 O   0  0  0  0  0  0  0  0  0  0  0  0
    7.1424   -9.9523    0.0000 H   0  0  0  0  0  0  0  0  0  0  0  0
    7.8569  -11.1898    0.0000 H   0  0  0  0  0  0  0  0  0  0  0  0
    9.7242   -7.4067    0.0000 O   0  0  0  0  0  0  0  0  0  0  0  0
    9.0831   -7.9259    0.0000 C   0  0  0  0  0  0  0  0  0  0  0  0
    9.2546   -8.7329    0.0000 C   0  0  0  0  0  0  0  0  0  0  0  0
 30 25  1  0  0  0  0
 29 28  1  0  0  0  0
 30 29  1  0  0  0  0
  1  2  2  0  0  0  0
  2  3  1  0  0  0  0
  3  4  1  0  0  0  0
  4  5  2  0  0  0  0
  5  6  1  0  0  0  0
  6  7  1  0  0  0  0
  7  8  1  0  0  0  0
  8  9  1  0  0  0  0
  9 10  1  0  0  0  0
 10 11  1  0  0  0  0
 11 12  1  0  0  0  0
 12 13  1  0  0  0  0
  9 13  1  0  0  0  0
 13 14  1  0  0  0  0
 14 15  1  0  0  0  0
 15 16  1  0  0  0  0
  8 16  1  0  0  0  0
 16 17  1  0  0  0  0
  5 17  1  0  0  0  0
  1 17  1  0  0  0  0
  3 18  2  0  0  0  0
 11 19  1  6  0  0  0
 13 20  1  1  0  0  0
 17 21  1  1  0  0  0
 12 22  1  6  0  0  0
 15 23  1  1  0  0  0
 16 24  1  6  0  0  0
 12 30  1  0  0  0  0
  8 26  1  1  0  0  0
  9 27  1  6  0  0  0
M  END
>  <cdx:fragmentId>
5

$$$$
