99002.cdx
  Mrv1902 05222410192D          

 44 50  0  0  0  0            999 V2000
    6.9488   -6.7284    0.0000 C   0  0  2  0  0  0  0  0  0  0  0  0
    7.3089   -7.4707    0.0000 C   0  0  1  0  0  0  0  0  0  0  0  0
    6.9531   -8.2150    0.0000 C   0  0  2  0  0  0  0  0  0  0  0  0
    6.1493   -8.4010    0.0000 C   0  0  1  0  0  0  0  0  0  0  0  0
    5.5028   -7.8885    0.0000 C   0  0  1  0  0  0  0  0  0  0  0  0
    5.5004   -7.0635    0.0000 C   0  0  2  0  0  0  0  0  0  0  0  0
    6.1439   -6.5472    0.0000 C   0  0  2  0  0  0  0  0  0  0  0  0
    4.7896   -8.3030    0.0000 C   0  0  2  0  0  0  0  0  0  0  0  0
    4.0739   -7.8926    0.0000 C   0  0  0  0  0  0  0  0  0  0  0  0
    4.0715   -7.0676    0.0000 C   0  0  0  0  0  0  0  0  0  0  0  0
    4.7847   -6.6530    0.0000 C   0  0  2  0  0  0  0  0  0  0  0  0
    6.0676   -5.7257    0.0000 C   0  0  0  0  0  0  0  0  0  0  0  0
    6.8252   -5.3993    0.0000 C   0  0  1  0  0  0  0  0  0  0  0  0
    7.3698   -6.0190    0.0000 C   0  0  2  0  0  0  0  0  0  0  0  0
    4.7823   -5.8281    0.0000 O   0  0  0  0  0  0  0  0  0  0  0  0
    4.7920   -9.1280    0.0000 C   0  0  0  0  0  0  0  0  0  0  0  0
    4.0787   -9.5426    0.0000 O   0  0  0  0  0  0  0  0  0  0  0  0
    4.0811  -10.3676    0.0000 C   0  0  0  0  0  0  0  0  0  0  0  0
    5.5000   -6.4075    0.0000 C   0  0  0  0  0  0  0  0  0  0  0  0
    4.7850   -7.4250    0.0000 N   0  0  0  0  0  0  0  0  0  0  0  0
    4.0700   -8.6075    0.0000 C   0  0  0  0  0  0  0  0  0  0  0  0
    8.1075   -7.2635    0.0000 C   0  0  0  0  0  0  0  0  0  0  0  0
    8.1400   -5.5825    0.0000 C   0  0  2  0  0  0  0  0  0  0  0  0
    7.5224   -8.2676    0.0000 O   0  0  0  0  0  0  0  0  0  0  0  0
    8.8550   -6.0225    0.0000 O   0  0  0  0  0  0  0  0  0  0  0  0
    5.4962   -8.7134    0.0000 H   0  0  0  0  0  0  0  0  0  0  0  0
    5.5606   -5.9638    0.0000 H   0  0  0  0  0  0  0  0  0  0  0  0
    7.7737   -6.7350    0.0000 H   0  0  0  0  0  0  0  0  0  0  0  0
    6.8252   -4.5743    0.0000 H   0  0  0  0  0  0  0  0  0  0  0  0
    6.9531   -9.0400    0.0000 H   0  0  0  0  0  0  0  0  0  0  0  0
    3.6025   -7.4250    0.0000 C   0  0  0  0  0  0  0  0  0  0  0  0
    8.8545   -5.1700    0.0000 O   0  0  0  0  0  0  0  0  0  0  0  0
    8.8545   -4.3450    0.0000 C   0  0  0  0  0  0  0  0  0  0  0  0
    6.1493   -9.2260    0.0000 O   0  0  0  0  0  0  0  0  0  0  0  0
    5.4349   -9.6385    0.0000 C   0  0  0  0  0  0  0  0  0  0  0  0
    3.0191   -6.8416    0.0000 C   0  0  0  0  0  0  0  0  0  0  0  0
    9.5695   -6.4350    0.0000 C   0  0  0  0  0  0  0  0  0  0  0  0
   10.2839   -6.0225    0.0000 C   0  0  0  0  0  0  0  0  0  0  0  0
    9.5695   -7.2600    0.0000 O   0  0  0  0  0  0  0  0  0  0  0  0
   10.9984   -6.4350    0.0000 C   0  0  0  0  0  0  0  0  0  0  0  0
   11.7129   -6.0225    0.0000 C   0  0  0  0  0  0  0  0  0  0  0  0
   11.7129   -5.1975    0.0000 C   0  0  0  0  0  0  0  0  0  0  0  0
   10.9984   -4.7850    0.0000 C   0  0  0  0  0  0  0  0  0  0  0  0
   10.2839   -5.1975    0.0000 C   0  0  0  0  0  0  0  0  0  0  0  0
  1  2  1  0  0  0  0
  2  3  1  0  0  0  0
  3  4  1  0  0  0  0
  4  5  1  0  0  0  0
  5  6  1  0  0  0  0
  6  7  1  0  0  0  0
  7  1  1  0  0  0  0
  5  8  1  0  0  0  0
  8  9  1  0  0  0  0
  9 10  1  0  0  0  0
 10 11  1  0  0  0  0
  6 11  1  1  0  0  0
  7 12  1  0  0  0  0
 12 13  1  0  0  0  0
 13 14  1  0  0  0  0
 14  1  1  0  0  0  0
 11 15  1  6  0  0  0
  8 16  1  1  0  0  0
 16 17  1  0  0  0  0
 17 18  1  0  0  0  0
  6 19  1  0  0  0  0
  3 19  1  0  0  0  0
 19 20  1  0  0  0  0
 20 21  1  0  0  0  0
  8 21  1  0  0  0  0
  2 22  1  0  0  0  0
 13 23  1  0  0  0  0
 23 22  1  0  0  0  0
  2 24  1  1  0  0  0
 14 25  1  6  0  0  0
  5 26  1  1  0  0  0
  7 27  1  1  0  0  0
  1 28  1  1  0  0  0
 13 29  1  1  0  0  0
  3 30  1  1  0  0  0
 20 31  1  0  0  0  0
 23 32  1  1  0  0  0
 32 33  1  0  0  0  0
  4 34  1  6  0  0  0
 34 35  1  0  0  0  0
 31 36  1  0  0  0  0
 25 37  1  0  0  0  0
 37 38  1  0  0  0  0
 37 39  2  0  0  0  0
 38 40  2  0  0  0  0
 40 41  1  0  0  0  0
 41 42  2  0  0  0  0
 42 43  1  0  0  0  0
 43 44  2  0  0  0  0
 44 38  1  0  0  0  0
M  END
>  <cdx:fragmentId>
491

$$$$
