99018.cdx
  Mrv1902 05222410262D          

 72 78  0  0  0  0            999 V2000
    4.9662   -4.1514    0.0000 O   0  0  0  0  0  0  0  0  0  0  0  0
    5.6983   -4.5769    0.0000 C   0  0  0  0  0  0  0  0  0  0  0  0
    5.6974   -5.4019    0.0000 C   0  0  0  0  0  0  0  0  0  0  0  0
    6.4115   -5.8152    0.0000 C   0  0  0  0  0  0  0  0  0  0  0  0
    6.4106   -6.6402    0.0000 C   0  0  0  0  0  0  0  0  0  0  0  0
    7.1246   -7.0534    0.0000 C   0  0  0  0  0  0  0  0  0  0  0  0
    7.1237   -7.8784    0.0000 C   0  0  0  0  0  0  0  0  0  0  0  0
    7.8378   -8.2917    0.0000 C   0  0  0  0  0  0  0  0  0  0  0  0
    7.8369   -9.1167    0.0000 C   0  0  0  0  0  0  0  0  0  0  0  0
    8.5509   -9.5300    0.0000 C   0  0  0  0  0  0  0  0  0  0  0  0
    6.4132   -4.1652    0.0000 O   0  0  0  0  0  0  0  0  0  0  0  0
    4.3913   -2.6309    0.0000 C   0  0  2  0  0  0  0  0  0  0  0  0
    4.7514   -3.3732    0.0000 C   0  0  2  0  0  0  0  0  0  0  0  0
    4.3956   -4.1175    0.0000 C   0  0  1  0  0  0  0  0  0  0  0  0
    3.5918   -4.3035    0.0000 C   0  0  1  0  0  0  0  0  0  0  0  0
    2.9453   -3.7910    0.0000 C   0  0  1  0  0  0  0  0  0  0  0  0
    2.9429   -2.9660    0.0000 C   0  0  2  0  0  0  0  0  0  0  0  0
    3.5864   -2.4497    0.0000 C   0  0  2  0  0  0  0  0  0  0  0  0
    2.2321   -4.2055    0.0000 C   0  0  2  0  0  0  0  0  0  0  0  0
    1.5164   -3.7951    0.0000 C   0  0  0  0  0  0  0  0  0  0  0  0
    1.5140   -2.9701    0.0000 C   0  0  0  0  0  0  0  0  0  0  0  0
    2.2272   -2.5555    0.0000 C   0  0  2  0  0  0  0  0  0  0  0  0
    3.5101   -1.6282    0.0000 C   0  0  0  0  0  0  0  0  0  0  0  0
    4.2677   -1.3018    0.0000 C   0  0  1  0  0  0  0  0  0  0  0  0
    4.8123   -1.9215    0.0000 C   0  0  2  0  0  0  0  0  0  0  0  0
    2.2345   -5.0305    0.0000 C   0  0  0  0  0  0  0  0  0  0  0  0
    1.5212   -5.4451    0.0000 O   0  0  0  0  0  0  0  0  0  0  0  0
    1.5236   -6.2701    0.0000 C   0  0  0  0  0  0  0  0  0  0  0  0
    2.9425   -2.3100    0.0000 C   0  0  0  0  0  0  0  0  0  0  0  0
    2.2275   -3.3275    0.0000 N   0  0  0  0  0  0  0  0  0  0  0  0
    1.5125   -4.5100    0.0000 C   0  0  0  0  0  0  0  0  0  0  0  0
    5.5500   -3.1660    0.0000 C   0  0  2  0  0  0  0  0  0  0  0  0
    5.5825   -1.4850    0.0000 C   0  0  2  0  0  0  0  0  0  0  0  0
    6.2975   -1.9250    0.0000 O   0  0  0  0  0  0  0  0  0  0  0  0
    2.9387   -4.6159    0.0000 H   0  0  0  0  0  0  0  0  0  0  0  0
    3.0031   -1.8663    0.0000 H   0  0  0  0  0  0  0  0  0  0  0  0
    5.2162   -2.6375    0.0000 H   0  0  0  0  0  0  0  0  0  0  0  0
    4.3956   -4.9425    0.0000 H   0  0  0  0  0  0  0  0  0  0  0  0
    1.0450   -3.3275    0.0000 C   0  0  0  0  0  0  0  0  0  0  0  0
    6.2970   -1.0725    0.0000 O   0  0  0  0  0  0  0  0  0  0  0  0
    6.2970   -0.2475    0.0000 C   0  0  0  0  0  0  0  0  0  0  0  0
    3.5918   -5.1285    0.0000 O   0  0  0  0  0  0  0  0  0  0  0  0
    2.8774   -5.5410    0.0000 C   0  0  0  0  0  0  0  0  0  0  0  0
    7.0120   -2.3375    0.0000 C   0  0  0  0  0  0  0  0  0  0  0  0
    7.7264   -1.9250    0.0000 C   0  0  0  0  0  0  0  0  0  0  0  0
    7.0120   -3.1625    0.0000 O   0  0  0  0  0  0  0  0  0  0  0  0
    8.4409   -2.3375    0.0000 C   0  0  0  0  0  0  0  0  0  0  0  0
    9.1554   -1.9250    0.0000 C   0  0  0  0  0  0  0  0  0  0  0  0
    9.1554   -1.1000    0.0000 C   0  0  0  0  0  0  0  0  0  0  0  0
    8.4409   -0.6875    0.0000 C   0  0  0  0  0  0  0  0  0  0  0  0
    7.7264   -1.1000    0.0000 C   0  0  0  0  0  0  0  0  0  0  0  0
    6.3468   -3.3796    0.0000 O   0  0  0  0  0  0  0  0  0  0  0  0
    0.4616   -2.7441    0.0000 C   0  0  0  0  0  0  0  0  0  0  0  0
    4.2677   -0.4768    0.0000 O   0  0  0  0  0  0  0  0  0  0  0  0
    2.2248   -1.7306    0.0000 O   0  0  0  0  0  0  0  0  0  0  0  0
    1.5104   -1.3181    0.0000 C   0  0  0  0  0  0  0  0  0  0  0  0
    8.5500  -10.3550    0.0000 C   0  0  0  0  0  0  0  0  0  0  0  0
    9.2641  -10.7682    0.0000 C   0  0  0  0  0  0  0  0  0  0  0  0
    9.2632  -11.5932    0.0000 C   0  0  0  0  0  0  0  0  0  0  0  0
    9.9772  -12.0065    0.0000 C   0  0  0  0  0  0  0  0  0  0  0  0
    9.9763  -12.8315    0.0000 C   0  0  0  0  0  0  0  0  0  0  0  0
   10.6903  -13.2447    0.0000 C   0  0  0  0  0  0  0  0  0  0  0  0
   10.6895  -14.0697    0.0000 C   0  0  0  0  0  0  0  0  0  0  0  0
   11.4035  -14.4830    0.0000 C   0  0  0  0  0  0  0  0  0  0  0  0
   11.4026  -15.3080    0.0000 C   0  0  0  0  0  0  0  0  0  0  0  0
   12.1166  -15.7213    0.0000 C   0  0  0  0  0  0  0  0  0  0  0  0
   12.1158  -16.5463    0.0000 C   0  0  0  0  0  0  0  0  0  0  0  0
   12.8298  -16.9595    0.0000 C   0  0  0  0  0  0  0  0  0  0  0  0
   12.8289  -17.7845    0.0000 C   0  0  0  0  0  0  0  0  0  0  0  0
   13.5429  -18.1978    0.0000 C   0  0  0  0  0  0  0  0  0  0  0  0
   13.5421  -19.0228    0.0000 C   0  0  0  0  0  0  0  0  0  0  0  0
   14.2561  -19.4361    0.0000 C   0  0  0  0  0  0  0  0  0  0  0  0
  2  3  1  0  0  0  0
  3  4  1  0  0  0  0
  4  5  1  0  0  0  0
  5  6  1  0  0  0  0
  6  7  1  0  0  0  0
  7  8  1  0  0  0  0
  8  9  1  0  0  0  0
  9 10  1  0  0  0  0
  2 11  2  0  0  0  0
  2  1  1  0  0  0  0
 12 13  1  0  0  0  0
 13 14  1  0  0  0  0
 14 15  1  0  0  0  0
 15 16  1  0  0  0  0
 16 17  1  0  0  0  0
 17 18  1  0  0  0  0
 18 12  1  0  0  0  0
 16 19  1  0  0  0  0
 19 20  1  0  0  0  0
 20 21  1  0  0  0  0
 21 22  1  0  0  0  0
 17 22  1  1  0  0  0
 18 23  1  0  0  0  0
 23 24  1  0  0  0  0
 24 25  1  0  0  0  0
 25 12  1  0  0  0  0
 19 26  1  1  0  0  0
 26 27  1  0  0  0  0
 27 28  1  0  0  0  0
 17 29  1  0  0  0  0
 14 29  1  0  0  0  0
 29 30  1  0  0  0  0
 30 31  1  0  0  0  0
 19 31  1  0  0  0  0
 13 32  1  0  0  0  0
 24 33  1  0  0  0  0
 33 32  1  0  0  0  0
 25 34  1  6  0  0  0
 16 35  1  1  0  0  0
 18 36  1  1  0  0  0
 12 37  1  1  0  0  0
 14 38  1  6  0  0  0
 30 39  1  0  0  0  0
 33 40  1  1  0  0  0
 40 41  1  0  0  0  0
 15 42  1  6  0  0  0
 42 43  1  0  0  0  0
 34 44  1  0  0  0  0
 44 45  1  0  0  0  0
 44 46  2  0  0  0  0
 45 47  2  0  0  0  0
 47 48  1  0  0  0  0
 48 49  2  0  0  0  0
 49 50  1  0  0  0  0
 50 51  2  0  0  0  0
 51 45  1  0  0  0  0
 32 52  1  6  0  0  0
 13  1  1  1  0  0  0
 39 53  1  0  0  0  0
 24 54  1  1  0  0  0
 22 55  1  6  0  0  0
 55 56  1  0  0  0  0
 10 57  1  0  0  0  0
 57 58  1  0  0  0  0
 58 59  1  0  0  0  0
 59 60  1  0  0  0  0
 60 61  1  0  0  0  0
 61 62  1  0  0  0  0
 62 63  1  0  0  0  0
 63 64  1  0  0  0  0
 64 65  1  0  0  0  0
 65 66  1  0  0  0  0
 66 67  1  0  0  0  0
 67 68  1  0  0  0  0
 68 69  1  0  0  0  0
 69 70  1  0  0  0  0
 70 71  1  0  0  0  0
 71 72  1  0  0  0  0
M  END
>  <cdx:fragmentId>
220

$$$$
