99019.cdx
  Mrv1902 05222410262D          

 70 76  0  0  0  0            999 V2000
    4.8837   -4.1789    0.0000 O   0  0  0  0  0  0  0  0  0  0  0  0
    5.6158   -4.6044    0.0000 C   0  0  0  0  0  0  0  0  0  0  0  0
    5.6149   -5.4294    0.0000 C   0  0  0  0  0  0  0  0  0  0  0  0
    6.3290   -5.8427    0.0000 C   0  0  0  0  0  0  0  0  0  0  0  0
    6.3281   -6.6677    0.0000 C   0  0  0  0  0  0  0  0  0  0  0  0
    6.3307   -4.1927    0.0000 O   0  0  0  0  0  0  0  0  0  0  0  0
    4.3088   -2.6584    0.0000 C   0  0  2  0  0  0  0  0  0  0  0  0
    4.6689   -3.4007    0.0000 C   0  0  2  0  0  0  0  0  0  0  0  0
    4.3131   -4.1450    0.0000 C   0  0  1  0  0  0  0  0  0  0  0  0
    3.5093   -4.3310    0.0000 C   0  0  1  0  0  0  0  0  0  0  0  0
    2.8628   -3.8185    0.0000 C   0  0  1  0  0  0  0  0  0  0  0  0
    2.8604   -2.9935    0.0000 C   0  0  2  0  0  0  0  0  0  0  0  0
    3.5039   -2.4772    0.0000 C   0  0  2  0  0  0  0  0  0  0  0  0
    2.1496   -4.2330    0.0000 C   0  0  2  0  0  0  0  0  0  0  0  0
    1.4339   -3.8226    0.0000 C   0  0  0  0  0  0  0  0  0  0  0  0
    1.4315   -2.9976    0.0000 C   0  0  0  0  0  0  0  0  0  0  0  0
    2.1447   -2.5830    0.0000 C   0  0  2  0  0  0  0  0  0  0  0  0
    3.4276   -1.6557    0.0000 C   0  0  0  0  0  0  0  0  0  0  0  0
    4.1852   -1.3293    0.0000 C   0  0  1  0  0  0  0  0  0  0  0  0
    4.7298   -1.9490    0.0000 C   0  0  2  0  0  0  0  0  0  0  0  0
    2.1520   -5.0580    0.0000 C   0  0  0  0  0  0  0  0  0  0  0  0
    1.4387   -5.4726    0.0000 O   0  0  0  0  0  0  0  0  0  0  0  0
    1.4411   -6.2976    0.0000 C   0  0  0  0  0  0  0  0  0  0  0  0
    2.8600   -2.3375    0.0000 C   0  0  0  0  0  0  0  0  0  0  0  0
    2.1450   -3.3550    0.0000 N   0  0  0  0  0  0  0  0  0  0  0  0
    1.4300   -4.5375    0.0000 C   0  0  0  0  0  0  0  0  0  0  0  0
    5.4675   -3.1935    0.0000 C   0  0  2  0  0  0  0  0  0  0  0  0
    5.5000   -1.5125    0.0000 C   0  0  2  0  0  0  0  0  0  0  0  0
    6.2150   -1.9525    0.0000 O   0  0  0  0  0  0  0  0  0  0  0  0
    2.8562   -4.6434    0.0000 H   0  0  0  0  0  0  0  0  0  0  0  0
    2.9206   -1.8938    0.0000 H   0  0  0  0  0  0  0  0  0  0  0  0
    5.1337   -2.6650    0.0000 H   0  0  0  0  0  0  0  0  0  0  0  0
    4.3131   -4.9700    0.0000 H   0  0  0  0  0  0  0  0  0  0  0  0
    0.9625   -3.3550    0.0000 C   0  0  0  0  0  0  0  0  0  0  0  0
    6.2145   -1.1000    0.0000 O   0  0  0  0  0  0  0  0  0  0  0  0
    6.2145   -0.2750    0.0000 C   0  0  0  0  0  0  0  0  0  0  0  0
    3.5093   -5.1560    0.0000 O   0  0  0  0  0  0  0  0  0  0  0  0
    2.7949   -5.5685    0.0000 C   0  0  0  0  0  0  0  0  0  0  0  0
    6.9295   -2.3650    0.0000 C   0  0  0  0  0  0  0  0  0  0  0  0
    7.6439   -1.9525    0.0000 C   0  0  0  0  0  0  0  0  0  0  0  0
    6.9295   -3.1900    0.0000 O   0  0  0  0  0  0  0  0  0  0  0  0
    8.3584   -2.3650    0.0000 C   0  0  0  0  0  0  0  0  0  0  0  0
    9.0729   -1.9525    0.0000 C   0  0  0  0  0  0  0  0  0  0  0  0
    9.0729   -1.1275    0.0000 C   0  0  0  0  0  0  0  0  0  0  0  0
    8.3584   -0.7150    0.0000 C   0  0  0  0  0  0  0  0  0  0  0  0
    7.6439   -1.1275    0.0000 C   0  0  0  0  0  0  0  0  0  0  0  0
    6.2643   -3.4071    0.0000 O   0  0  0  0  0  0  0  0  0  0  0  0
    4.1852   -0.5043    0.0000 O   0  0  0  0  0  0  0  0  0  0  0  0
    2.1423   -1.7581    0.0000 O   0  0  0  0  0  0  0  0  0  0  0  0
    1.4279   -1.3456    0.0000 C   0  0  0  0  0  0  0  0  0  0  0  0
    7.0421   -7.0809    0.0000 C   0  0  0  0  0  0  0  0  0  0  0  0
    7.0412   -7.9059    0.0000 C   0  0  0  0  0  0  0  0  0  0  0  0
    7.7553   -8.3192    0.0000 C   0  0  0  0  0  0  0  0  0  0  0  0
    7.7544   -9.1442    0.0000 C   0  0  0  0  0  0  0  0  0  0  0  0
    8.4684   -9.5575    0.0000 C   0  0  0  0  0  0  0  0  0  0  0  0
    8.4675  -10.3825    0.0000 C   0  0  0  0  0  0  0  0  0  0  0  0
    0.3791   -2.7716    0.0000 C   0  0  0  0  0  0  0  0  0  0  0  0
    9.1816  -10.7957    0.0000 C   0  0  0  0  0  0  0  0  0  0  0  0
    9.1807  -11.6207    0.0000 C   0  0  0  0  0  0  0  0  0  0  0  0
    9.8947  -12.0340    0.0000 C   0  0  0  0  0  0  0  0  0  0  0  0
    9.8938  -12.8590    0.0000 C   0  0  0  0  0  0  0  0  0  0  0  0
   10.6078  -13.2722    0.0000 C   0  0  0  0  0  0  0  0  0  0  0  0
   10.6070  -14.0972    0.0000 C   0  0  0  0  0  0  0  0  0  0  0  0
   11.3210  -14.5105    0.0000 C   0  0  0  0  0  0  0  0  0  0  0  0
   11.3201  -15.3355    0.0000 C   0  0  0  0  0  0  0  0  0  0  0  0
   12.0341  -15.7488    0.0000 C   0  0  0  0  0  0  0  0  0  0  0  0
   12.0333  -16.5738    0.0000 C   0  0  0  0  0  0  0  0  0  0  0  0
   12.7473  -16.9870    0.0000 C   0  0  0  0  0  0  0  0  0  0  0  0
   12.7464  -17.8120    0.0000 C   0  0  0  0  0  0  0  0  0  0  0  0
   13.4604  -18.2253    0.0000 C   0  0  0  0  0  0  0  0  0  0  0  0
  2  3  1  0  0  0  0
  3  4  1  0  0  0  0
  4  5  1  0  0  0  0
  2  6  2  0  0  0  0
  2  1  1  0  0  0  0
  7  8  1  0  0  0  0
  8  9  1  0  0  0  0
  9 10  1  0  0  0  0
 10 11  1  0  0  0  0
 11 12  1  0  0  0  0
 12 13  1  0  0  0  0
 13  7  1  0  0  0  0
 11 14  1  0  0  0  0
 14 15  1  0  0  0  0
 15 16  1  0  0  0  0
 16 17  1  0  0  0  0
 12 17  1  1  0  0  0
 13 18  1  0  0  0  0
 18 19  1  0  0  0  0
 19 20  1  0  0  0  0
 20  7  1  0  0  0  0
 14 21  1  1  0  0  0
 21 22  1  0  0  0  0
 22 23  1  0  0  0  0
 12 24  1  0  0  0  0
  9 24  1  0  0  0  0
 24 25  1  0  0  0  0
 25 26  1  0  0  0  0
 14 26  1  0  0  0  0
  8 27  1  0  0  0  0
 19 28  1  0  0  0  0
 28 27  1  0  0  0  0
 20 29  1  6  0  0  0
 11 30  1  1  0  0  0
 13 31  1  1  0  0  0
  7 32  1  1  0  0  0
  9 33  1  6  0  0  0
 25 34  1  0  0  0  0
 28 35  1  1  0  0  0
 35 36  1  0  0  0  0
 10 37  1  6  0  0  0
 37 38  1  0  0  0  0
 29 39  1  0  0  0  0
 39 40  1  0  0  0  0
 39 41  2  0  0  0  0
 40 42  2  0  0  0  0
 42 43  1  0  0  0  0
 43 44  2  0  0  0  0
 44 45  1  0  0  0  0
 45 46  2  0  0  0  0
 46 40  1  0  0  0  0
 27 47  1  6  0  0  0
  8  1  1  1  0  0  0
 19 48  1  1  0  0  0
 17 49  1  6  0  0  0
 49 50  1  0  0  0  0
  5 51  1  0  0  0  0
 51 52  1  0  0  0  0
 52 53  1  0  0  0  0
 53 54  1  0  0  0  0
 54 55  1  0  0  0  0
 55 56  1  0  0  0  0
 34 57  1  0  0  0  0
 56 58  1  0  0  0  0
 58 59  1  0  0  0  0
 59 60  1  0  0  0  0
 60 61  1  0  0  0  0
 61 62  1  0  0  0  0
 62 63  1  0  0  0  0
 63 64  1  0  0  0  0
 64 65  1  0  0  0  0
 65 66  1  0  0  0  0
 66 67  1  0  0  0  0
 67 68  1  0  0  0  0
 68 69  1  0  0  0  0
 69 70  1  0  0  0  0
M  END
>  <cdx:fragmentId>
220

$$$$
