99014.cdx
  Mrv1902 05222410202D          

 66 72  0  0  0  0            999 V2000
    5.9287   -5.9664    0.0000 O   0  0  0  0  0  0  0  0  0  0  0  0
    6.6608   -6.3919    0.0000 C   0  0  0  0  0  0  0  0  0  0  0  0
    6.6599   -7.2169    0.0000 C   0  0  0  0  0  0  0  0  0  0  0  0
    7.3740   -7.6302    0.0000 C   0  0  0  0  0  0  0  0  0  0  0  0
    7.3731   -8.4552    0.0000 C   0  0  0  0  0  0  0  0  0  0  0  0
    8.0871   -8.8684    0.0000 C   0  0  0  0  0  0  0  0  0  0  0  0
    8.0862   -9.6934    0.0000 C   0  0  0  0  0  0  0  0  0  0  0  0
    8.8003  -10.1067    0.0000 C   0  0  0  0  0  0  0  0  0  0  0  0
    8.7994  -10.9317    0.0000 C   0  0  0  0  0  0  0  0  0  0  0  0
    9.5134  -11.3450    0.0000 C   0  0  0  0  0  0  0  0  0  0  0  0
    9.5125  -12.1700    0.0000 C   0  0  0  0  0  0  0  0  0  0  0  0
    7.3757   -5.9802    0.0000 O   0  0  0  0  0  0  0  0  0  0  0  0
    5.3538   -4.4459    0.0000 C   0  0  2  0  0  0  0  0  0  0  0  0
    5.7139   -5.1882    0.0000 C   0  0  2  0  0  0  0  0  0  0  0  0
    5.3581   -5.9325    0.0000 C   0  0  1  0  0  0  0  0  0  0  0  0
    4.5543   -6.1185    0.0000 C   0  0  1  0  0  0  0  0  0  0  0  0
    3.9078   -5.6060    0.0000 C   0  0  1  0  0  0  0  0  0  0  0  0
    3.9054   -4.7810    0.0000 C   0  0  2  0  0  0  0  0  0  0  0  0
    4.5489   -4.2647    0.0000 C   0  0  2  0  0  0  0  0  0  0  0  0
    3.1946   -6.0205    0.0000 C   0  0  2  0  0  0  0  0  0  0  0  0
    2.4789   -5.6101    0.0000 C   0  0  0  0  0  0  0  0  0  0  0  0
    2.4765   -4.7851    0.0000 C   0  0  0  0  0  0  0  0  0  0  0  0
    3.1897   -4.3705    0.0000 C   0  0  2  0  0  0  0  0  0  0  0  0
    4.4726   -3.4432    0.0000 C   0  0  0  0  0  0  0  0  0  0  0  0
    5.2302   -3.1168    0.0000 C   0  0  1  0  0  0  0  0  0  0  0  0
    5.7748   -3.7365    0.0000 C   0  0  2  0  0  0  0  0  0  0  0  0
    3.1873   -3.5456    0.0000 O   0  0  0  0  0  0  0  0  0  0  0  0
    2.4762   -3.1274    0.0000 C   0  0  0  0  0  0  0  0  0  0  0  0
    3.1970   -6.8455    0.0000 C   0  0  0  0  0  0  0  0  0  0  0  0
    2.4837   -7.2601    0.0000 O   0  0  0  0  0  0  0  0  0  0  0  0
    2.4861   -8.0851    0.0000 C   0  0  0  0  0  0  0  0  0  0  0  0
    3.9050   -4.1250    0.0000 C   0  0  0  0  0  0  0  0  0  0  0  0
    3.1900   -5.1425    0.0000 N   0  0  0  0  0  0  0  0  0  0  0  0
    2.4750   -6.3250    0.0000 C   0  0  0  0  0  0  0  0  0  0  0  0
    6.5125   -4.9810    0.0000 C   0  0  2  0  0  0  0  0  0  0  0  0
    6.5450   -3.3000    0.0000 C   0  0  2  0  0  0  0  0  0  0  0  0
    7.2600   -3.7400    0.0000 O   0  0  0  0  0  0  0  0  0  0  0  0
    3.9012   -6.4309    0.0000 H   0  0  0  0  0  0  0  0  0  0  0  0
    3.9656   -3.6813    0.0000 H   0  0  0  0  0  0  0  0  0  0  0  0
    6.1787   -4.4525    0.0000 H   0  0  0  0  0  0  0  0  0  0  0  0
    5.2302   -2.2918    0.0000 O   0  0  0  0  0  0  0  0  0  0  0  0
    5.3581   -6.7575    0.0000 H   0  0  0  0  0  0  0  0  0  0  0  0
    2.0075   -5.1425    0.0000 C   0  0  0  0  0  0  0  0  0  0  0  0
    7.2595   -2.8875    0.0000 O   0  0  0  0  0  0  0  0  0  0  0  0
    7.2595   -2.0625    0.0000 C   0  0  0  0  0  0  0  0  0  0  0  0
    4.5543   -6.9435    0.0000 O   0  0  0  0  0  0  0  0  0  0  0  0
    3.8399   -7.3560    0.0000 C   0  0  0  0  0  0  0  0  0  0  0  0
    7.9745   -4.1525    0.0000 C   0  0  0  0  0  0  0  0  0  0  0  0
    8.6889   -3.7400    0.0000 C   0  0  0  0  0  0  0  0  0  0  0  0
    7.9745   -4.9775    0.0000 O   0  0  0  0  0  0  0  0  0  0  0  0
    9.4034   -4.1525    0.0000 C   0  0  0  0  0  0  0  0  0  0  0  0
   10.1179   -3.7400    0.0000 C   0  0  0  0  0  0  0  0  0  0  0  0
   10.1179   -2.9150    0.0000 C   0  0  0  0  0  0  0  0  0  0  0  0
    9.4034   -2.5025    0.0000 C   0  0  0  0  0  0  0  0  0  0  0  0
    8.6889   -2.9150    0.0000 C   0  0  0  0  0  0  0  0  0  0  0  0
    7.3093   -5.1946    0.0000 O   0  0  0  0  0  0  0  0  0  0  0  0
   10.2266  -12.5832    0.0000 C   0  0  0  0  0  0  0  0  0  0  0  0
   10.2257  -13.4082    0.0000 C   0  0  0  0  0  0  0  0  0  0  0  0
   10.9397  -13.8215    0.0000 C   0  0  0  0  0  0  0  0  0  0  0  0
   10.9388  -14.6465    0.0000 C   0  0  0  0  0  0  0  0  0  0  0  0
   11.6528  -15.0597    0.0000 C   0  0  0  0  0  0  0  0  0  0  0  0
   11.6520  -15.8847    0.0000 C   0  0  0  0  0  0  0  0  0  0  0  0
   12.3660  -16.2980    0.0000 C   0  0  0  0  0  0  0  0  0  0  0  0
   12.3651  -17.1230    0.0000 C   0  0  0  0  0  0  0  0  0  0  0  0
   13.0791  -17.5363    0.0000 C   0  0  0  0  0  0  0  0  0  0  0  0
    1.4241   -4.5591    0.0000 C   0  0  0  0  0  0  0  0  0  0  0  0
  2  3  1  0  0  0  0
  3  4  1  0  0  0  0
  4  5  1  0  0  0  0
  5  6  1  0  0  0  0
  6  7  1  0  0  0  0
  7  8  1  0  0  0  0
  8  9  1  0  0  0  0
  9 10  1  0  0  0  0
 10 11  1  0  0  0  0
  2 12  2  0  0  0  0
  2  1  1  0  0  0  0
 13 14  1  0  0  0  0
 14 15  1  0  0  0  0
 15 16  1  0  0  0  0
 16 17  1  0  0  0  0
 17 18  1  0  0  0  0
 18 19  1  0  0  0  0
 19 13  1  0  0  0  0
 17 20  1  0  0  0  0
 20 21  1  0  0  0  0
 21 22  1  0  0  0  0
 22 23  1  0  0  0  0
 18 23  1  1  0  0  0
 19 24  1  0  0  0  0
 24 25  1  0  0  0  0
 25 26  1  0  0  0  0
 26 13  1  0  0  0  0
 23 27  1  6  0  0  0
 27 28  1  0  0  0  0
 20 29  1  1  0  0  0
 29 30  1  0  0  0  0
 30 31  1  0  0  0  0
 18 32  1  0  0  0  0
 15 32  1  0  0  0  0
 32 33  1  0  0  0  0
 33 34  1  0  0  0  0
 20 34  1  0  0  0  0
 14 35  1  0  0  0  0
 25 36  1  0  0  0  0
 36 35  1  0  0  0  0
 26 37  1  6  0  0  0
 17 38  1  1  0  0  0
 19 39  1  1  0  0  0
 13 40  1  1  0  0  0
 25 41  1  1  0  0  0
 15 42  1  6  0  0  0
 33 43  1  0  0  0  0
 36 44  1  1  0  0  0
 44 45  1  0  0  0  0
 16 46  1  6  0  0  0
 46 47  1  0  0  0  0
 37 48  1  0  0  0  0
 48 49  1  0  0  0  0
 48 50  2  0  0  0  0
 49 51  2  0  0  0  0
 51 52  1  0  0  0  0
 52 53  2  0  0  0  0
 53 54  1  0  0  0  0
 54 55  2  0  0  0  0
 55 49  1  0  0  0  0
 35 56  1  6  0  0  0
 14  1  1  1  0  0  0
 11 57  1  0  0  0  0
 57 58  1  0  0  0  0
 58 59  1  0  0  0  0
 59 60  1  0  0  0  0
 60 61  1  0  0  0  0
 61 62  1  0  0  0  0
 62 63  1  0  0  0  0
 63 64  1  0  0  0  0
 64 65  1  0  0  0  0
 43 66  1  0  0  0  0
M  END
>  <cdx:fragmentId>
220

$$$$
