99038.cdx
  Mrv1902 05222410182D          

 11 12  0  0  0  0            999 V2000
    4.2598   -2.5332    0.0000 C   0  0  0  0  0  0  0  0  0  0  0  0
    3.5453   -2.9457    0.0000 C   0  0  0  0  0  0  0  0  0  0  0  0
    3.5453   -3.7707    0.0000 C   0  0  0  0  0  0  0  0  0  0  0  0
    4.2598   -4.1832    0.0000 C   0  0  0  0  0  0  0  0  0  0  0  0
    4.9743   -3.7707    0.0000 C   0  0  0  0  0  0  0  0  0  0  0  0
    4.9743   -2.9457    0.0000 C   0  0  0  0  0  0  0  0  0  0  0  0
    4.4424   -3.2526    0.0000 C   0  0  0  0  0  0  0  0  0  0  0  0
    2.8308   -4.1832    0.0000 O   0  0  0  0  0  0  0  0  0  0  0  0
    5.3868   -2.2312    0.0000 C   0  0  0  0  0  0  0  0  0  0  0  0
    5.7993   -2.9457    0.0000 C   0  0  0  0  0  0  0  0  0  0  0  0
    2.8308   -2.5332    0.0000 C   0  0  0  0  0  0  0  0  0  0  0  0
  1  2  1  0  0  0  0
  2  3  1  0  0  0  0
  3  4  1  0  0  0  0
  4  5  1  0  0  0  0
  5  6  1  0  0  0  0
  1  6  1  0  0  0  0
  1  7  1  0  0  0  0
  7  5  1  0  0  0  0
  3  8  1  0  0  0  0
  6  9  1  0  0  0  0
  6 10  1  0  0  0  0
  2 11  1  0  0  0  0
M  END
>  <cdx:groupId>
36

>  <cdx:fragmentId>
5

$$$$
