9904.cdx
  Mrv1902 05222410212D          

 26 27  0  0  0  0            999 V2000
    4.1181   -7.5488    0.0000 C   0  0  1  0  0  0  0  0  0  0  0  0
    4.1181   -8.3737    0.0000 C   0  0  1  0  0  0  0  0  0  0  0  0
    4.8326   -8.7862    0.0000 C   0  0  2  0  0  0  0  0  0  0  0  0
    5.5470   -8.3737    0.0000 C   0  0  1  0  0  0  0  0  0  0  0  0
    5.5470   -7.5488    0.0000 O   0  0  0  0  0  0  0  0  0  0  0  0
    4.8326   -7.1362    0.0000 C   0  0  2  0  0  0  0  0  0  0  0  0
    6.2615   -8.7862    0.0000 O   0  0  0  0  0  0  0  0  0  0  0  0
    6.9760   -8.3737    0.0000 C   0  0  0  0  0  0  0  0  0  0  0  0
    6.9760   -7.5488    0.0000 C   0  0  0  0  0  0  0  0  0  0  0  0
    6.2615   -7.1362    0.0000 O   0  0  0  0  0  0  0  0  0  0  0  0
    7.6905   -8.7862    0.0000 C   0  0  0  0  0  0  0  0  0  0  0  0
    8.4049   -8.3737    0.0000 C   0  0  0  0  0  0  0  0  0  0  0  0
    8.4049   -7.5488    0.0000 C   0  0  0  0  0  0  0  0  0  0  0  0
    7.6905   -7.1362    0.0000 C   0  0  0  0  0  0  0  0  0  0  0  0
    9.1194   -7.1362    0.0000 C   0  0  0  0  0  0  0  0  0  0  0  0
    9.8339   -7.5488    0.0000 C   0  0  0  0  0  0  0  0  0  0  0  0
   10.5483   -7.1362    0.0000 C   0  0  0  0  0  0  0  0  0  0  0  0
   11.2628   -7.5488    0.0000 O   0  0  0  0  0  0  0  0  0  0  0  0
    7.6905   -9.6112    0.0000 O   0  0  0  0  0  0  0  0  0  0  0  0
    6.2615   -6.3113    0.0000 C   0  0  0  0  0  0  0  0  0  0  0  0
    4.8326   -6.3113    0.0000 C   0  0  0  0  0  0  0  0  0  0  0  0
    3.4036   -8.7862    0.0000 O   0  0  0  0  0  0  0  0  0  0  0  0
    4.8326   -9.6112    0.0000 O   0  0  0  0  0  0  0  0  0  0  0  0
    3.4036   -7.1362    0.0000 O   0  0  0  0  0  0  0  0  0  0  0  0
    8.4049  -10.0238    0.0000 C   0  0  0  0  0  0  0  0  0  0  0  0
    4.1181   -5.8988    0.0000 O   0  0  0  0  0  0  0  0  0  0  0  0
  1  2  1  0  0  0  0
  2  3  1  0  0  0  0
  3  4  1  0  0  0  0
  4  5  1  0  0  0  0
  5  6  1  0  0  0  0
  6  1  1  0  0  0  0
  4  7  1  1  0  0  0
  7  8  1  0  0  0  0
  8  9  2  0  0  0  0
  9 10  1  0  0  0  0
  8 11  1  0  0  0  0
 11 12  2  0  0  0  0
 12 13  1  0  0  0  0
 13 14  2  0  0  0  0
 14  9  1  0  0  0  0
 13 15  1  0  0  0  0
 15 16  1  0  0  0  0
 16 17  1  0  0  0  0
 17 18  1  0  0  0  0
 11 19  1  0  0  0  0
 10 20  1  0  0  0  0
  6 21  1  1  0  0  0
  2 22  1  1  0  0  0
  3 23  1  6  0  0  0
  1 24  1  6  0  0  0
 19 25  1  0  0  0  0
 21 26  1  0  0  0  0
M  END
>  <cdx:fragmentId>
5

$$$$
