99066.cdx
  Mrv1902 05222410212D          

 60 66  0  0  0  0            999 V2000
    4.9963   -3.7584    0.0000 C   0  0  2  0  0  0  0  0  0  0  0  0
    5.3564   -4.5007    0.0000 C   0  0  1  0  0  0  0  0  0  0  0  0
    5.0006   -5.2450    0.0000 C   0  0  1  0  0  0  0  0  0  0  0  0
    4.1968   -5.4310    0.0000 C   0  0  1  0  0  0  0  0  0  0  0  0
    3.5503   -4.9185    0.0000 C   0  0  1  0  0  0  0  0  0  0  0  0
    3.5479   -4.0935    0.0000 C   0  0  2  0  0  0  0  0  0  0  0  0
    4.1914   -3.5772    0.0000 C   0  0  2  0  0  0  0  0  0  0  0  0
    2.8371   -5.3330    0.0000 C   0  0  2  0  0  0  0  0  0  0  0  0
    2.1214   -4.9226    0.0000 C   0  0  1  0  0  0  0  0  0  0  0  0
    2.1190   -4.0976    0.0000 C   0  0  0  0  0  0  0  0  0  0  0  0
    2.8322   -3.6830    0.0000 C   0  0  2  0  0  0  0  0  0  0  0  0
    4.1151   -2.7557    0.0000 C   0  0  0  0  0  0  0  0  0  0  0  0
    4.8727   -2.4293    0.0000 C   0  0  1  0  0  0  0  0  0  0  0  0
    5.4173   -3.0490    0.0000 C   0  0  2  0  0  0  0  0  0  0  0  0
    2.8298   -2.8581    0.0000 O   0  0  0  0  0  0  0  0  0  0  0  0
    2.1187   -2.4399    0.0000 C   0  0  0  0  0  0  0  0  0  0  0  0
    2.8395   -6.1580    0.0000 C   0  0  0  0  0  0  0  0  0  0  0  0
    2.1262   -6.5726    0.0000 O   0  0  0  0  0  0  0  0  0  0  0  0
    2.1286   -7.3976    0.0000 C   0  0  0  0  0  0  0  0  0  0  0  0
    3.5475   -3.4375    0.0000 C   0  0  0  0  0  0  0  0  0  0  0  0
    2.8325   -4.4550    0.0000 N   0  0  0  0  0  0  0  0  0  0  0  0
    2.1175   -5.6375    0.0000 C   0  0  0  0  0  0  0  0  0  0  0  0
    6.1550   -4.2935    0.0000 C   0  0  2  0  0  0  0  0  0  0  0  0
    6.1325   -2.5850    0.0000 C   0  0  2  0  0  0  0  0  0  0  0  0
    5.5699   -5.2976    0.0000 O   0  0  0  0  0  0  0  0  0  0  0  0
    6.7375   -2.9975    0.0000 O   0  0  0  0  0  0  0  0  0  0  0  0
    3.5437   -5.7434    0.0000 H   0  0  0  0  0  0  0  0  0  0  0  0
    3.6081   -2.9938    0.0000 H   0  0  0  0  0  0  0  0  0  0  0  0
    5.8212   -3.7650    0.0000 H   0  0  0  0  0  0  0  0  0  0  0  0
    4.8727   -1.6043    0.0000 O   0  0  0  0  0  0  0  0  0  0  0  0
    5.0006   -6.0700    0.0000 H   0  0  0  0  0  0  0  0  0  0  0  0
    1.6500   -4.4550    0.0000 C   0  0  0  0  0  0  0  0  0  0  0  0
    4.1968   -6.2560    0.0000 O   0  0  0  0  0  0  0  0  0  0  0  0
    3.4824   -6.6685    0.0000 C   0  0  0  0  0  0  0  0  0  0  0  0
    7.4520   -3.4100    0.0000 C   0  0  0  0  0  0  0  0  0  0  0  0
    8.1664   -2.9975    0.0000 C   0  0  0  0  0  0  0  0  0  0  0  0
    7.4520   -4.2350    0.0000 O   0  0  0  0  0  0  0  0  0  0  0  0
    8.8809   -3.4100    0.0000 C   0  0  0  0  0  0  0  0  0  0  0  0
    9.5954   -2.9975    0.0000 C   0  0  0  0  0  0  0  0  0  0  0  0
    9.5954   -2.1725    0.0000 C   0  0  0  0  0  0  0  0  0  0  0  0
    8.8809   -1.7600    0.0000 C   0  0  0  0  0  0  0  0  0  0  0  0
    8.1664   -2.1725    0.0000 C   0  0  0  0  0  0  0  0  0  0  0  0
    6.9518   -4.5071    0.0000 O   0  0  0  0  0  0  0  0  0  0  0  0
    6.2893   -5.6900    0.0000 C   0  0  0  0  0  0  0  0  0  0  0  0
    6.3062   -6.5148    0.0000 C   0  0  0  0  0  0  0  0  0  0  0  0
    6.9951   -5.2629    0.0000 O   0  0  0  0  0  0  0  0  0  0  0  0
    6.7470   -2.0345    0.0000 O   0  0  0  0  0  0  0  0  0  0  0  0
    6.7470   -1.2095    0.0000 C   0  0  0  0  0  0  0  0  0  0  0  0
    7.0289   -6.9126    0.0000 C   0  0  0  0  0  0  0  0  0  0  0  0
    7.0458   -7.7374    0.0000 C   0  0  0  0  0  0  0  0  0  0  0  0
    7.7891   -8.9674    0.0000 C   0  0  0  0  0  0  0  0  0  0  0  0
    7.7686   -8.1352    0.0000 C   0  0  0  0  0  0  0  0  0  0  0  0
    8.5135   -9.3622    0.0000 C   0  0  0  0  0  0  0  0  0  0  0  0
    8.5339  -10.1869    0.0000 C   0  0  0  0  0  0  0  0  0  0  0  0
    9.2583  -10.5817    0.0000 C   0  0  0  0  0  0  0  0  0  0  0  0
    9.2787  -11.4064    0.0000 C   0  0  0  0  0  0  0  0  0  0  0  0
   10.0031  -11.8012    0.0000 C   0  0  0  0  0  0  0  0  0  0  0  0
   10.0234  -12.6259    0.0000 C   0  0  0  0  0  0  0  0  0  0  0  0
   10.7479  -13.0207    0.0000 C   0  0  0  0  0  0  0  0  0  0  0  0
    1.4081   -5.3372    0.0000 O   0  0  0  0  0  0  0  0  0  0  0  0
  1  2  1  0  0  0  0
  2  3  1  0  0  0  0
  3  4  1  0  0  0  0
  4  5  1  0  0  0  0
  5  6  1  0  0  0  0
  6  7  1  0  0  0  0
  7  1  1  0  0  0  0
  5  8  1  0  0  0  0
  8  9  1  0  0  0  0
  9 10  1  0  0  0  0
 10 11  1  0  0  0  0
  6 11  1  1  0  0  0
  7 12  1  0  0  0  0
 12 13  1  0  0  0  0
 13 14  1  0  0  0  0
 14  1  1  0  0  0  0
 11 15  1  6  0  0  0
 15 16  1  0  0  0  0
  8 17  1  1  0  0  0
 17 18  1  0  0  0  0
 18 19  1  0  0  0  0
  6 20  1  0  0  0  0
  3 20  1  0  0  0  0
 20 21  1  0  0  0  0
 21 22  1  0  0  0  0
  8 22  1  0  0  0  0
  2 23  1  0  0  0  0
 13 24  1  0  0  0  0
 24 23  1  0  0  0  0
  2 25  1  1  0  0  0
 14 26  1  6  0  0  0
  5 27  1  1  0  0  0
  7 28  1  1  0  0  0
  1 29  1  1  0  0  0
 13 30  1  1  0  0  0
  3 31  1  6  0  0  0
 21 32  1  0  0  0  0
  4 33  1  6  0  0  0
 33 34  1  0  0  0  0
 26 35  1  0  0  0  0
 35 36  1  0  0  0  0
 35 37  2  0  0  0  0
 36 38  2  0  0  0  0
 38 39  1  0  0  0  0
 39 40  2  0  0  0  0
 40 41  1  0  0  0  0
 41 42  2  0  0  0  0
 42 36  1  0  0  0  0
 23 43  1  6  0  0  0
 44 45  1  0  0  0  0
 44 46  2  0  0  0  0
 25 44  1  0  0  0  0
 24 47  1  1  0  0  0
 47 48  1  0  0  0  0
 45 49  1  0  0  0  0
 49 50  1  0  0  0  0
 50 52  1  0  0  0  0
 51 52  1  0  0  0  0
 51 53  1  0  0  0  0
 53 54  1  0  0  0  0
 54 55  1  0  0  0  0
 55 56  1  0  0  0  0
 56 57  1  0  0  0  0
 57 58  1  0  0  0  0
 58 59  1  0  0  0  0
  9 60  1  6  0  0  0
M  END
>  <cdx:fragmentId>
491

$$$$
