990871.cdx
  Mrv1902 05222410242D          

123135  0  0  0  0            999 V2000
    9.3853  -10.3392    0.0000 C   0  0  0  0  0  0  0  0  0  0  0  0
    8.6715  -10.7529    0.0000 C   0  0  1  0  0  0  0  0  0  0  0  0
    8.6729  -11.5779    0.0000 C   0  0  1  0  0  0  0  0  0  0  0  0
    9.3881  -11.9892    0.0000 C   0  0  1  0  0  0  0  0  0  0  0  0
   10.1019  -11.5755    0.0000 C   0  0  2  0  0  0  0  0  0  0  0  0
   10.8170  -11.9868    0.0000 C   0  0  0  0  0  0  0  0  0  0  0  0
   11.5308  -11.5731    0.0000 C   0  0  0  0  0  0  0  0  0  0  0  0
   11.5294  -10.7481    0.0000 C   0  0  1  0  0  0  0  0  0  0  0  0
   12.2432  -10.3344    0.0000 C   0  0  2  0  0  0  0  0  0  0  0  0
   12.9584  -10.7457    0.0000 C   0  0  0  0  0  0  0  0  0  0  0  0
   13.6721  -10.3320    0.0000 C   0  0  0  0  0  0  0  0  0  0  0  0
   13.6707   -9.5070    0.0000 C   0  0  1  0  0  0  0  0  0  0  0  0
   14.3845   -9.0933    0.0000 C   0  0  0  0  0  0  0  0  0  0  0  0
   14.3831   -8.2683    0.0000 C   0  0  0  0  0  0  0  0  0  0  0  0
   13.6680   -7.8570    0.0000 C   0  0  0  0  0  0  0  0  0  0  0  0
   12.9542   -8.2707    0.0000 C   0  0  0  0  0  0  0  0  0  0  0  0
   12.9556   -9.0957    0.0000 C   0  0  1  0  0  0  0  0  0  0  0  0
   12.2418   -9.5094    0.0000 C   0  0  0  0  0  0  0  0  0  0  0  0
   11.5266   -9.0981    0.0000 C   0  0  0  0  0  0  0  0  0  0  0  0
   10.8129   -9.5118    0.0000 C   0  0  0  0  0  0  0  0  0  0  0  0
   10.8142  -10.3368    0.0000 C   0  0  2  0  0  0  0  0  0  0  0  0
   10.1005  -10.7505    0.0000 C   0  0  1  0  0  0  0  0  0  0  0  0
    7.9591  -11.9916    0.0000 O   0  0  0  0  0  0  0  0  0  0  0  0
    7.2426  -10.7553    0.0000 O   0  0  0  0  0  0  0  0  0  0  0  0
    7.2440  -11.5803    0.0000 C   0  0  2  0  0  0  0  0  0  0  0  0
    6.5302  -11.9940    0.0000 C   0  0  1  0  0  0  0  0  0  0  0  0
    5.8150  -11.5827    0.0000 C   0  0  2  0  0  0  0  0  0  0  0  0
    5.8137  -10.7577    0.0000 C   0  0  1  0  0  0  0  0  0  0  0  0
    6.5274  -10.3440    0.0000 C   0  0  1  0  0  0  0  0  0  0  0  0
    6.5260   -9.5190    0.0000 C   0  0  0  0  0  0  0  0  0  0  0  0
    5.8109   -9.1078    0.0000 O   0  0  0  0  0  0  0  0  0  0  0  0
    5.0985  -10.3464    0.0000 O   0  0  0  0  0  0  0  0  0  0  0  0
    5.1013  -11.9964    0.0000 O   0  0  0  0  0  0  0  0  0  0  0  0
    6.5316  -12.8190    0.0000 O   0  0  0  0  0  0  0  0  0  0  0  0
   10.0991   -9.9255    0.0000 C   0  0  0  0  0  0  0  0  0  0  0  0
   13.2543   -7.1433    0.0000 C   0  0  0  0  0  0  0  0  0  0  0  0
   14.0793   -7.1419    0.0000 C   0  0  0  0  0  0  0  0  0  0  0  0
   11.5280   -9.9231    0.0000 C   0  0  0  0  0  0  0  0  0  0  0  0
    8.9756  -12.7037    0.0000 C   0  0  0  0  0  0  0  0  0  0  0  0
   12.2446  -11.1594    0.0000 C   0  0  0  0  0  0  0  0  0  0  0  0
   12.9597  -11.5707    0.0000 O   0  0  0  0  0  0  0  0  0  0  0  0
    7.9564  -10.3416    0.0000 O   0  0  0  0  0  0  0  0  0  0  0  0
   14.3859   -9.9183    0.0000 C   0  0  0  0  0  0  0  0  0  0  0  0
   14.3873  -10.7433    0.0000 O   0  0  0  0  0  0  0  0  0  0  0  0
   15.0997   -9.5046    0.0000 O   0  0  0  0  0  0  0  0  0  0  0  0
   15.8162  -10.7409    0.0000 O   0  0  0  0  0  0  0  0  0  0  0  0
   15.8148   -9.9159    0.0000 C   0  0  2  0  0  0  0  0  0  0  0  0
   16.5286   -9.5022    0.0000 C   0  0  1  0  0  0  0  0  0  0  0  0
   17.2438   -9.9135    0.0000 C   0  0  2  0  0  0  0  0  0  0  0  0
   17.2452  -10.7385    0.0000 C   0  0  2  0  0  0  0  0  0  0  0  0
   16.5314  -11.1522    0.0000 C   0  0  1  0  0  0  0  0  0  0  0  0
   17.9576   -9.4998    0.0000 O   0  0  0  0  0  0  0  0  0  0  0  0
   18.6741  -10.7361    0.0000 O   0  0  0  0  0  0  0  0  0  0  0  0
   18.6727   -9.9111    0.0000 C   0  0  2  0  0  0  0  0  0  0  0  0
   19.3865   -9.4974    0.0000 C   0  0  1  0  0  0  0  0  0  0  0  0
   20.1017   -9.9087    0.0000 C   0  0  1  0  0  0  0  0  0  0  0  0
   20.1031  -10.7337    0.0000 C   0  0  2  0  0  0  0  0  0  0  0  0
   19.3893  -11.1474    0.0000 C   0  0  2  0  0  0  0  0  0  0  0  0
   19.3907  -11.9724    0.0000 C   0  0  0  0  0  0  0  0  0  0  0  0
   20.8182  -11.1450    0.0000 O   0  0  0  0  0  0  0  0  0  0  0  0
   20.8154   -9.4950    0.0000 O   0  0  0  0  0  0  0  0  0  0  0  0
   19.3851   -8.6724    0.0000 O   0  0  0  0  0  0  0  0  0  0  0  0
   16.5328  -11.9772    0.0000 C   0  0  0  0  0  0  0  0  0  0  0  0
   17.9603  -11.1498    0.0000 O   0  0  0  0  0  0  0  0  0  0  0  0
   17.9617  -11.9748    0.0000 C   0  0  0  0  0  0  0  0  0  0  0  0
   18.6769  -12.3861    0.0000 C   0  0  0  0  0  0  0  0  0  0  0  0
   18.6783  -13.2111    0.0000 C   0  0  0  0  0  0  0  0  0  0  0  0
   17.2479  -12.3885    0.0000 O   0  0  0  0  0  0  0  0  0  0  0  0
   19.3934  -13.6224    0.0000 C   0  0  0  0  0  0  0  0  0  0  0  0
   20.1072  -13.2087    0.0000 C   0  0  0  0  0  0  0  0  0  0  0  0
   20.8224  -13.6200    0.0000 C   0  0  0  0  0  0  0  0  0  0  0  0
   20.8238  -14.4450    0.0000 C   0  0  0  0  0  0  0  0  0  0  0  0
   20.1100  -14.8587    0.0000 C   0  0  0  0  0  0  0  0  0  0  0  0
   19.3948  -14.4474    0.0000 C   0  0  0  0  0  0  0  0  0  0  0  0
   21.5389  -14.8563    0.0000 O   0  0  0  0  0  0  0  0  0  0  0  0
   22.2527  -14.4426    0.0000 C   0  0  0  0  0  0  0  0  0  0  0  0
   16.5264   -8.6497    0.0000 O   0  0  0  0  0  0  0  0  0  0  0  0
   17.7466   -7.9062    0.0000 O   0  0  0  0  0  0  0  0  0  0  0  0
   16.9219   -7.9257    0.0000 C   0  0  2  0  0  0  0  0  0  0  0  0
   16.4926   -7.2212    0.0000 C   0  0  1  0  0  0  0  0  0  0  0  0
   16.8880   -6.4972    0.0000 C   0  0  1  0  0  0  0  0  0  0  0  0
   17.7128   -6.4776    0.0000 C   0  0  2  0  0  0  0  0  0  0  0  0
   18.1421   -7.1821    0.0000 C   0  0  2  0  0  0  0  0  0  0  0  0
   18.9669   -7.1626    0.0000 C   0  0  0  0  0  0  0  0  0  0  0  0
   16.4587   -5.7927    0.0000 O   0  0  0  0  0  0  0  0  0  0  0  0
   15.6678   -7.2407    0.0000 O   0  0  0  0  0  0  0  0  0  0  0  0
   18.1083   -5.7536    0.0000 O   0  0  0  0  0  0  0  0  0  0  0  0
   19.3623   -6.4386    0.0000 O   0  0  0  0  0  0  0  0  0  0  0  0
   18.9330   -5.7341    0.0000 C   0  0  2  0  0  0  0  0  0  0  0  0
   19.3285   -5.0100    0.0000 C   0  0  1  0  0  0  0  0  0  0  0  0
   20.1533   -4.9905    0.0000 C   0  0  2  0  0  0  0  0  0  0  0  0
   20.5826   -5.6950    0.0000 C   0  0  1  0  0  0  0  0  0  0  0  0
   20.1871   -6.4190    0.0000 C   0  0  0  0  0  0  0  0  0  0  0  0
   20.5487   -4.2664    0.0000 O   0  0  0  0  0  0  0  0  0  0  0  0
   18.8992   -4.3055    0.0000 O   0  0  0  0  0  0  0  0  0  0  0  0
   10.1032  -12.4005    0.0000 H   0  0  0  0  0  0  0  0  0  0  0  0
   12.2411   -8.6832    0.0000 H   0  0  0  0  0  0  0  0  0  0  0  0
   10.8156  -11.1618    0.0000 H   0  0  0  0  0  0  0  0  0  0  0  0
   23.0569   -5.6364    0.0000 O   0  0  0  0  0  0  0  0  0  0  0  0
   23.9155   -7.0454    0.0000 O   0  0  0  0  0  0  0  0  0  0  0  0
   23.1246   -8.4934    0.0000 O   0  0  0  0  0  0  0  0  0  0  0  0
   21.9043   -9.2370    0.0000 O   0  0  0  0  0  0  0  0  0  0  0  0
   21.4750   -8.5325    0.0000 C   0  0  0  0  0  0  0  0  0  0  0  0
   21.8705   -7.8085    0.0000 C   0  0  2  0  0  0  0  0  0  0  0  0
   22.6952   -7.7889    0.0000 C   0  0  1  0  0  0  0  0  0  0  0  0
   23.0907   -7.0649    0.0000 C   0  0  1  0  0  0  0  0  0  0  0  0
   22.6614   -6.3604    0.0000 C   0  0  2  0  0  0  0  0  0  0  0  0
   21.8366   -6.3799    0.0000 C   0  0  1  0  0  0  0  0  0  0  0  0
   21.4412   -7.1040    0.0000 O   0  0  0  0  0  0  0  0  0  0  0  0
   21.4073   -5.6754    0.0000 O   0  0  0  0  0  0  0  0  0  0  0  0
    9.8006  -12.7037    0.0000 C   0  0  0  0  0  0  0  0  0  0  0  0
    9.3881  -13.4182    0.0000 O   0  0  0  0  0  0  0  0  0  0  0  0
   10.6256  -12.7037    0.0000 O   0  0  0  0  0  0  0  0  0  0  0  0
   15.7483   -5.3732    0.0000 C   0  0  2  0  0  0  0  0  0  0  0  0
   15.7463   -4.5482    0.0000 O   0  0  0  0  0  0  0  0  0  0  0  0
   15.0309   -4.1374    0.0000 C   0  0  2  0  0  0  0  0  0  0  0  0
   14.3174   -4.5516    0.0000 C   0  0  1  0  0  0  0  0  0  0  0  0
   14.3194   -5.3766    0.0000 C   0  0  2  0  0  0  0  0  0  0  0  0
   15.0348   -5.7874    0.0000 C   0  0  1  0  0  0  0  0  0  0  0  0
   13.6020   -4.1408    0.0000 O   0  0  0  0  0  0  0  0  0  0  0  0
   15.0290   -3.3124    0.0000 C   0  0  0  0  0  0  0  0  0  0  0  0
   15.0368   -6.6124    0.0000 O   0  0  0  0  0  0  0  0  0  0  0  0
   13.6059   -5.7908    0.0000 O   0  0  0  0  0  0  0  0  0  0  0  0
108110  1  1  0  0  0
107 99  1  6  0  0  0
106100  1  1  0  0  0
105101  1  1  0  0  0
104103  1  1  0  0  0
103102  1  0  0  0  0
109104  1  0  0  0  0
105104  1  0  0  0  0
106105  1  0  0  0  0
107106  1  0  0  0  0
108107  1  0  0  0  0
109108  1  0  0  0  0
  1  2  1  0  0  0  0
  2  3  1  0  0  0  0
  3  4  1  0  0  0  0
  4  5  1  0  0  0  0
  5  6  1  0  0  0  0
  6  7  1  0  0  0  0
  7  8  1  0  0  0  0
  8  9  1  0  0  0  0
  9 10  1  0  0  0  0
 10 11  1  0  0  0  0
 11 12  1  0  0  0  0
 12 13  1  0  0  0  0
 13 14  1  0  0  0  0
 14 15  1  0  0  0  0
 15 16  1  0  0  0  0
 16 17  1  0  0  0  0
 12 17  1  0  0  0  0
 17 18  1  0  0  0  0
  9 18  1  0  0  0  0
 18 19  2  0  0  0  0
 19 20  1  0  0  0  0
 20 21  1  0  0  0  0
  8 21  1  0  0  0  0
 21 22  1  0  0  0  0
  5 22  1  0  0  0  0
  1 22  1  0  0  0  0
 24 25  1  0  0  0  0
 25 26  1  0  0  0  0
 26 27  1  0  0  0  0
 27 28  1  0  0  0  0
 28 29  1  0  0  0  0
 24 29  1  0  0  0  0
 30 31  1  0  0  0  0
 29 30  1  1  0  0  0
 28 32  1  6  0  0  0
 27 33  1  1  0  0  0
 26 34  1  6  0  0  0
 25 23  1  1  0  0  0
  3 23  1  1  0  0  0
 22 35  1  1  0  0  0
 15 36  1  0  0  0  0
 15 37  1  0  0  0  0
  8 38  1  1  0  0  0
  4 39  1  1  0  0  0
 40 41  1  0  0  0  0
  9 40  1  6  0  0  0
  2 42  1  1  0  0  0
 43 44  2  0  0  0  0
 46 47  1  0  0  0  0
 47 48  1  0  0  0  0
 48 49  1  0  0  0  0
 49 50  1  0  0  0  0
 50 51  1  0  0  0  0
 46 51  1  0  0  0  0
 53 54  1  0  0  0  0
 54 55  1  0  0  0  0
 55 56  1  0  0  0  0
 56 57  1  0  0  0  0
 57 58  1  0  0  0  0
 53 58  1  0  0  0  0
 58 59  1  6  0  0  0
 57 60  1  1  0  0  0
 56 61  1  6  0  0  0
 55 62  1  6  0  0  0
 54 52  1  1  0  0  0
 49 52  1  1  0  0  0
 51 63  1  1  0  0  0
 65 66  1  0  0  0  0
 66 67  2  0  0  0  0
 65 68  2  0  0  0  0
 69 70  1  0  0  0  0
 70 71  2  0  0  0  0
 71 72  1  0  0  0  0
 72 73  2  0  0  0  0
 73 74  1  0  0  0  0
 69 74  2  0  0  0  0
 75 76  1  0  0  0  0
 72 75  1  0  0  0  0
 67 69  1  0  0  0  0
 64 65  1  0  0  0  0
 50 64  1  1  0  0  0
 78 79  1  0  0  0  0
 79 80  1  0  0  0  0
 80 81  1  0  0  0  0
 81 82  1  0  0  0  0
 82 83  1  0  0  0  0
 78 83  1  0  0  0  0
 83 84  1  6  0  0  0
 81 85  1  6  0  0  0
 80 86  1  6  0  0  0
 88 89  1  0  0  0  0
 89 90  1  0  0  0  0
 90 91  1  0  0  0  0
 91 92  1  0  0  0  0
 92 93  1  0  0  0  0
 88 93  1  0  0  0  0
 92110  1  6  0  0  0
 91 94  1  1  0  0  0
 90 95  1  6  0  0  0
 89 87  1  1  0  0  0
 82 87  1  1  0  0  0
 79 77  1  1  0  0  0
 48 77  1  6  0  0  0
 47 45  1  1  0  0  0
 43 45  1  0  0  0  0
 12 43  1  1  0  0  0
  5 96  1  6  0  0  0
 17 97  1  1  0  0  0
 21 98  1  6  0  0  0
  4111  1  0  0  0  0
111112  2  0  0  0  0
111113  1  0  0  0  0
114 85  1  1  0  0  0
114115  1  0  0  0  0
115116  1  0  0  0  0
116117  1  0  0  0  0
117118  1  0  0  0  0
118119  1  0  0  0  0
119114  1  0  0  0  0
117120  1  1  0  0  0
116121  1  6  0  0  0
119122  1  6  0  0  0
118123  1  6  0  0  0
M  END
>  <cdx:fragmentId>
140292

$$$$
