990885.cdx
  Mrv1902 05222410202D          

 65 74  0  0  0  0            999 V2000
    7.9750   -6.9025    0.0000 C   0  0  1  0  0  0  0  0  0  0  0  0
    7.4168   -7.5700    0.0000 C   0  0  0  0  0  0  0  0  0  0  0  0
    7.4118   -8.3743    0.0000 C   0  0  0  0  0  0  0  0  0  0  0  0
    8.1059   -8.7808    0.0000 O   0  0  0  0  0  0  0  0  0  0  0  0
    8.1009   -9.5852    0.0000 C   0  0  1  0  0  0  0  0  0  0  0  0
    7.4018   -9.9830    0.0000 C   0  0  1  0  0  0  0  0  0  0  0  0
    6.7077   -9.5765    0.0000 C   0  0  2  0  0  0  0  0  0  0  0  0
    6.7127   -8.7722    0.0000 C   0  0  0  0  0  0  0  0  0  0  0  0
    6.0186   -8.3656    0.0000 C   0  0  0  0  0  0  0  0  0  0  0  0
    6.0236   -7.5613    0.0000 C   0  0  0  0  0  0  0  0  0  0  0  0
    6.7227   -7.1634    0.0000 C   0  0  0  0  0  0  0  0  0  0  0  0
    6.7000   -6.3697    0.0000 O   0  0  0  0  0  0  0  0  0  0  0  0
    7.4067   -5.9440    0.0000 C   0  0  2  0  0  0  0  0  0  0  0  0
    8.1211   -5.5315    0.0000 O   0  0  0  0  0  0  0  0  0  0  0  0
    8.8356   -5.9440    0.0000 C   0  0  0  0  0  0  0  0  0  0  0  0
    9.5501   -5.5315    0.0000 C   0  0  0  0  0  0  0  0  0  0  0  0
   10.2645   -5.9440    0.0000 C   0  0  0  0  0  0  0  0  0  0  0  0
   10.2645   -6.7690    0.0000 C   0  0  0  0  0  0  0  0  0  0  0  0
    9.5501   -7.1815    0.0000 C   0  0  0  0  0  0  0  0  0  0  0  0
    8.8356   -6.7690    0.0000 C   0  0  0  0  0  0  0  0  0  0  0  0
    6.5175   -5.5550    0.0000 C   0  0  2  0  0  0  0  0  0  0  0  0
    7.4018  -10.8080    0.0000 O   0  0  0  0  0  0  0  0  0  0  0  0
    5.3041   -8.7781    0.0000 O   0  0  0  0  0  0  0  0  0  0  0  0
   10.9790   -5.5315    0.0000 O   0  0  0  0  0  0  0  0  0  0  0  0
    9.5501   -8.0065    0.0000 O   0  0  0  0  0  0  0  0  0  0  0  0
    5.8030   -5.1425    0.0000 O   0  0  0  0  0  0  0  0  0  0  0  0
    6.3219  -12.2743    0.0000 C   0  0  2  0  0  0  0  0  0  0  0  0
    5.6074  -12.6868    0.0000 C   0  0  1  0  0  0  0  0  0  0  0  0
    4.8929  -12.2743    0.0000 C   0  0  0  0  0  0  0  0  0  0  0  0
    4.8929  -11.4493    0.0000 C   0  0  0  0  0  0  0  0  0  0  0  0
    4.1784  -11.0368    0.0000 C   0  0  0  0  0  0  0  0  0  0  0  0
    4.1784  -10.2118    0.0000 C   0  0  0  0  0  0  0  0  0  0  0  0
    4.8929   -9.7993    0.0000 C   0  0  0  0  0  0  0  0  0  0  0  0
    5.6074  -10.2118    0.0000 C   0  0  0  0  0  0  0  0  0  0  0  0
    5.6074  -11.0368    0.0000 C   0  0  0  0  0  0  0  0  0  0  0  0
    6.3219  -11.4493    0.0000 O   0  0  0  0  0  0  0  0  0  0  0  0
    4.8929   -8.9743    0.0000 O   0  0  0  0  0  0  0  0  0  0  0  0
    3.4640  -11.4493    0.0000 O   0  0  0  0  0  0  0  0  0  0  0  0
    5.6074  -13.5118    0.0000 O   0  0  0  0  0  0  0  0  0  0  0  0
    7.0363  -12.6868    0.0000 C   0  0  0  0  0  0  0  0  0  0  0  0
    7.7508  -12.2743    0.0000 C   0  0  0  0  0  0  0  0  0  0  0  0
    8.4653  -12.6868    0.0000 C   0  0  0  0  0  0  0  0  0  0  0  0
    8.4653  -13.5118    0.0000 C   0  0  0  0  0  0  0  0  0  0  0  0
    7.7508  -13.9243    0.0000 C   0  0  0  0  0  0  0  0  0  0  0  0
    7.0363  -13.5118    0.0000 C   0  0  0  0  0  0  0  0  0  0  0  0
    9.1797  -13.9243    0.0000 O   0  0  0  0  0  0  0  0  0  0  0  0
    9.1797  -12.2743    0.0000 O   0  0  0  0  0  0  0  0  0  0  0  0
    8.8153   -9.9977    0.0000 C   0  0  0  0  0  0  0  0  0  0  0  0
    9.5298   -9.5852    0.0000 C   0  0  0  0  0  0  0  0  0  0  0  0
   10.2443   -9.9977    0.0000 C   0  0  0  0  0  0  0  0  0  0  0  0
   10.2443  -10.8227    0.0000 C   0  0  0  0  0  0  0  0  0  0  0  0
    9.5298  -11.2352    0.0000 C   0  0  0  0  0  0  0  0  0  0  0  0
    8.8153  -10.8227    0.0000 C   0  0  0  0  0  0  0  0  0  0  0  0
   10.9588  -11.2352    0.0000 O   0  0  0  0  0  0  0  0  0  0  0  0
   10.9588   -9.5852    0.0000 O   0  0  0  0  0  0  0  0  0  0  0  0
    8.8143   -3.5024    0.0000 O   0  0  0  0  0  0  0  0  0  0  0  0
    7.3885   -2.6720    0.0000 O   0  0  0  0  0  0  0  0  0  0  0  0
    6.6662   -4.7318    0.0000 C   0  0  0  0  0  0  0  0  0  0  0  0
    6.6693   -3.9068    0.0000 C   0  0  0  0  0  0  0  0  0  0  0  0
    7.3854   -3.4970    0.0000 C   0  0  0  0  0  0  0  0  0  0  0  0
    8.0983   -3.9122    0.0000 C   0  0  0  0  0  0  0  0  0  0  0  0
    8.0952   -4.7372    0.0000 C   0  0  0  0  0  0  0  0  0  0  0  0
    7.3792   -5.1470    0.0000 C   0  0  0  0  0  0  0  0  0  0  0  0
    6.7027  -10.3809    0.0000 H   0  0  0  0  0  0  0  0  0  0  0  0
    8.1885   -7.6994    0.0000 H   0  0  0  0  0  0  0  0  0  0  0  0
 61 56  1  0  0  0  0
 60 57  1  0  0  0  0
 63 58  2  0  0  0  0
 59 58  1  0  0  0  0
 60 59  2  0  0  0  0
 61 60  1  0  0  0  0
 62 61  2  0  0  0  0
 63 62  1  0  0  0  0
  1  2  1  0  0  0  0
  2  3  1  0  0  0  0
  3  4  1  0  0  0  0
  4  5  1  0  0  0  0
  5  6  1  0  0  0  0
  6  7  1  0  0  0  0
  7  8  1  0  0  0  0
  8  9  1  0  0  0  0
  9 10  2  0  0  0  0
 10 11  1  0  0  0  0
 11 12  1  0  0  0  0
 12 13  1  0  0  0  0
 13 14  1  0  0  0  0
 14 15  1  0  0  0  0
 15 16  2  0  0  0  0
 16 17  1  0  0  0  0
 17 18  2  0  0  0  0
 18 19  1  0  0  0  0
 19 20  2  0  0  0  0
  1 20  1  0  0  0  0
  1 21  1  0  0  0  0
 21 13  1  0  0  0  0
 15 20  1  0  0  0  0
  2 11  2  0  0  0  0
  3  8  2  0  0  0  0
  6 22  1  6  0  0  0
  9 23  1  0  0  0  0
 17 24  1  0  0  0  0
 19 25  1  0  0  0  0
 21 26  1  1  0  0  0
 27 28  1  0  0  0  0
 28 29  1  0  0  0  0
 29 30  1  0  0  0  0
 30 31  1  0  0  0  0
 31 32  2  0  0  0  0
 32 33  1  0  0  0  0
 33 34  2  0  0  0  0
 34 35  1  0  0  0  0
 30 35  2  0  0  0  0
 35 36  1  0  0  0  0
 27 36  1  0  0  0  0
 33 37  1  0  0  0  0
 31 38  1  0  0  0  0
 28 39  1  6  0  0  0
 40 41  1  0  0  0  0
 41 42  2  0  0  0  0
 42 43  1  0  0  0  0
 43 44  2  0  0  0  0
 44 45  1  0  0  0  0
 40 45  2  0  0  0  0
 43 46  1  0  0  0  0
 42 47  1  0  0  0  0
 27 40  1  6  0  0  0
  7 34  1  0  0  0  0
 13 63  1  6  0  0  0
 48 49  1  0  0  0  0
 49 50  2  0  0  0  0
 50 51  1  0  0  0  0
 51 52  2  0  0  0  0
 52 53  1  0  0  0  0
 48 53  2  0  0  0  0
 51 54  1  0  0  0  0
 50 55  1  0  0  0  0
  5 48  1  6  0  0  0
  7 64  1  6  0  0  0
  1 65  1  1  0  0  0
M  END
>  <cdx:fragmentId>
105892

$$$$
