99080.cdx
  Mrv1902 05222410252D          

 71 77  0  0  0  0            999 V2000
    4.8287   -4.0964    0.0000 O   0  0  0  0  0  0  0  0  0  0  0  0
    5.5608   -4.5219    0.0000 C   0  0  0  0  0  0  0  0  0  0  0  0
    5.5599   -5.3469    0.0000 C   0  0  0  0  0  0  0  0  0  0  0  0
    6.2740   -5.7602    0.0000 C   0  0  0  0  0  0  0  0  0  0  0  0
    6.2731   -6.5852    0.0000 C   0  0  0  0  0  0  0  0  0  0  0  0
    6.2757   -4.1102    0.0000 O   0  0  0  0  0  0  0  0  0  0  0  0
    4.2538   -2.5759    0.0000 C   0  0  2  0  0  0  0  0  0  0  0  0
    4.6139   -3.3182    0.0000 C   0  0  2  0  0  0  0  0  0  0  0  0
    4.2581   -4.0625    0.0000 C   0  0  1  0  0  0  0  0  0  0  0  0
    3.4543   -4.2485    0.0000 C   0  0  1  0  0  0  0  0  0  0  0  0
    2.8078   -3.7360    0.0000 C   0  0  1  0  0  0  0  0  0  0  0  0
    2.8054   -2.9110    0.0000 C   0  0  2  0  0  0  0  0  0  0  0  0
    3.4489   -2.3947    0.0000 C   0  0  2  0  0  0  0  0  0  0  0  0
    2.0946   -4.1505    0.0000 C   0  0  2  0  0  0  0  0  0  0  0  0
    1.3789   -3.7401    0.0000 C   0  0  1  0  0  0  0  0  0  0  0  0
    1.3765   -2.9151    0.0000 C   0  0  0  0  0  0  0  0  0  0  0  0
    2.0897   -2.5005    0.0000 C   0  0  2  0  0  0  0  0  0  0  0  0
    3.3726   -1.5732    0.0000 C   0  0  0  0  0  0  0  0  0  0  0  0
    4.1302   -1.2468    0.0000 C   0  0  1  0  0  0  0  0  0  0  0  0
    4.6748   -1.8665    0.0000 C   0  0  2  0  0  0  0  0  0  0  0  0
    2.0970   -4.9755    0.0000 C   0  0  0  0  0  0  0  0  0  0  0  0
    1.3837   -5.3901    0.0000 O   0  0  0  0  0  0  0  0  0  0  0  0
    1.3861   -6.2151    0.0000 C   0  0  0  0  0  0  0  0  0  0  0  0
    2.8050   -2.2550    0.0000 C   0  0  0  0  0  0  0  0  0  0  0  0
    2.0900   -3.2725    0.0000 N   0  0  0  0  0  0  0  0  0  0  0  0
    1.3750   -4.4550    0.0000 C   0  0  0  0  0  0  0  0  0  0  0  0
    5.4125   -3.1110    0.0000 C   0  0  2  0  0  0  0  0  0  0  0  0
    5.4450   -1.4300    0.0000 C   0  0  2  0  0  0  0  0  0  0  0  0
    6.1600   -1.8700    0.0000 O   0  0  0  0  0  0  0  0  0  0  0  0
    2.8012   -4.5609    0.0000 H   0  0  0  0  0  0  0  0  0  0  0  0
    2.8656   -1.8113    0.0000 H   0  0  0  0  0  0  0  0  0  0  0  0
    5.0787   -2.5825    0.0000 H   0  0  0  0  0  0  0  0  0  0  0  0
    4.2581   -4.8875    0.0000 H   0  0  0  0  0  0  0  0  0  0  0  0
    0.9075   -3.2725    0.0000 C   0  0  0  0  0  0  0  0  0  0  0  0
    6.1595   -1.0175    0.0000 O   0  0  0  0  0  0  0  0  0  0  0  0
    6.1595   -0.1925    0.0000 C   0  0  0  0  0  0  0  0  0  0  0  0
    3.4543   -5.0735    0.0000 O   0  0  0  0  0  0  0  0  0  0  0  0
    2.7399   -5.4860    0.0000 C   0  0  0  0  0  0  0  0  0  0  0  0
    6.8745   -2.2825    0.0000 C   0  0  0  0  0  0  0  0  0  0  0  0
    7.5889   -1.8700    0.0000 C   0  0  0  0  0  0  0  0  0  0  0  0
    6.8745   -3.1075    0.0000 O   0  0  0  0  0  0  0  0  0  0  0  0
    8.3034   -2.2825    0.0000 C   0  0  0  0  0  0  0  0  0  0  0  0
    9.0179   -1.8700    0.0000 C   0  0  0  0  0  0  0  0  0  0  0  0
    9.0179   -1.0450    0.0000 C   0  0  0  0  0  0  0  0  0  0  0  0
    8.3034   -0.6325    0.0000 C   0  0  0  0  0  0  0  0  0  0  0  0
    7.5889   -1.0450    0.0000 C   0  0  0  0  0  0  0  0  0  0  0  0
    6.2093   -3.3246    0.0000 O   0  0  0  0  0  0  0  0  0  0  0  0
    4.1302   -0.4218    0.0000 O   0  0  0  0  0  0  0  0  0  0  0  0
    2.0873   -1.6756    0.0000 O   0  0  0  0  0  0  0  0  0  0  0  0
    1.3729   -1.2631    0.0000 C   0  0  0  0  0  0  0  0  0  0  0  0
    0.6656   -4.1547    0.0000 O   0  0  0  0  0  0  0  0  0  0  0  0
    6.9871   -6.9984    0.0000 C   0  0  0  0  0  0  0  0  0  0  0  0
    6.9862   -7.8234    0.0000 C   0  0  0  0  0  0  0  0  0  0  0  0
    7.7003   -8.2367    0.0000 C   0  0  0  0  0  0  0  0  0  0  0  0
    7.6994   -9.0617    0.0000 C   0  0  0  0  0  0  0  0  0  0  0  0
    8.4134   -9.4750    0.0000 C   0  0  0  0  0  0  0  0  0  0  0  0
    8.4125  -10.3000    0.0000 C   0  0  0  0  0  0  0  0  0  0  0  0
    9.1266  -10.7132    0.0000 C   0  0  0  0  0  0  0  0  0  0  0  0
    9.1257  -11.5382    0.0000 C   0  0  0  0  0  0  0  0  0  0  0  0
    9.8397  -11.9515    0.0000 C   0  0  0  0  0  0  0  0  0  0  0  0
    9.8388  -12.7765    0.0000 C   0  0  0  0  0  0  0  0  0  0  0  0
   10.5528  -13.1897    0.0000 C   0  0  0  0  0  0  0  0  0  0  0  0
   10.5520  -14.0147    0.0000 C   0  0  0  0  0  0  0  0  0  0  0  0
   11.2660  -14.4280    0.0000 C   0  0  0  0  0  0  0  0  0  0  0  0
   11.2651  -15.2530    0.0000 C   0  0  0  0  0  0  0  0  0  0  0  0
   11.9791  -15.6663    0.0000 C   0  0  0  0  0  0  0  0  0  0  0  0
   11.9783  -16.4913    0.0000 C   0  0  0  0  0  0  0  0  0  0  0  0
   12.6923  -16.9045    0.0000 C   0  0  0  0  0  0  0  0  0  0  0  0
   12.6914  -17.7295    0.0000 C   0  0  0  0  0  0  0  0  0  0  0  0
   13.4054  -18.1428    0.0000 C   0  0  0  0  0  0  0  0  0  0  0  0
   13.4046  -18.9678    0.0000 C   0  0  0  0  0  0  0  0  0  0  0  0
  2  3  1  0  0  0  0
  3  4  1  0  0  0  0
  4  5  1  0  0  0  0
  2  6  2  0  0  0  0
  2  1  1  0  0  0  0
  7  8  1  0  0  0  0
  8  9  1  0  0  0  0
  9 10  1  0  0  0  0
 10 11  1  0  0  0  0
 11 12  1  0  0  0  0
 12 13  1  0  0  0  0
 13  7  1  0  0  0  0
 11 14  1  0  0  0  0
 14 15  1  0  0  0  0
 15 16  1  0  0  0  0
 16 17  1  0  0  0  0
 12 17  1  1  0  0  0
 13 18  1  0  0  0  0
 18 19  1  0  0  0  0
 19 20  1  0  0  0  0
 20  7  1  0  0  0  0
 14 21  1  1  0  0  0
 21 22  1  0  0  0  0
 22 23  1  0  0  0  0
 12 24  1  0  0  0  0
  9 24  1  0  0  0  0
 24 25  1  0  0  0  0
 25 26  1  0  0  0  0
 14 26  1  0  0  0  0
  8 27  1  0  0  0  0
 19 28  1  0  0  0  0
 28 27  1  0  0  0  0
 20 29  1  6  0  0  0
 11 30  1  1  0  0  0
 13 31  1  1  0  0  0
  7 32  1  1  0  0  0
  9 33  1  6  0  0  0
 25 34  1  0  0  0  0
 28 35  1  1  0  0  0
 35 36  1  0  0  0  0
 10 37  1  6  0  0  0
 37 38  1  0  0  0  0
 29 39  1  0  0  0  0
 39 40  1  0  0  0  0
 39 41  2  0  0  0  0
 40 42  2  0  0  0  0
 42 43  1  0  0  0  0
 43 44  2  0  0  0  0
 44 45  1  0  0  0  0
 45 46  2  0  0  0  0
 46 40  1  0  0  0  0
 27 47  1  6  0  0  0
  8  1  1  1  0  0  0
 19 48  1  1  0  0  0
 17 49  1  6  0  0  0
 49 50  1  0  0  0  0
 15 51  1  6  0  0  0
  5 52  1  0  0  0  0
 52 53  1  0  0  0  0
 53 54  1  0  0  0  0
 54 55  1  0  0  0  0
 55 56  1  0  0  0  0
 56 57  1  0  0  0  0
 57 58  1  0  0  0  0
 58 59  1  0  0  0  0
 59 60  1  0  0  0  0
 60 61  1  0  0  0  0
 61 62  1  0  0  0  0
 62 63  1  0  0  0  0
 63 64  1  0  0  0  0
 64 65  1  0  0  0  0
 65 66  1  0  0  0  0
 66 67  1  0  0  0  0
 67 68  1  0  0  0  0
 68 69  1  0  0  0  0
 69 70  1  0  0  0  0
 70 71  1  0  0  0  0
M  END
>  <cdx:fragmentId>
220

$$$$
