99084.cdx
  Mrv1902 05222410242D          

 64 70  0  0  0  0            999 V2000
    5.9287   -5.8014    0.0000 O   0  0  0  0  0  0  0  0  0  0  0  0
    6.6608   -6.2269    0.0000 C   0  0  0  0  0  0  0  0  0  0  0  0
    6.6599   -7.0519    0.0000 C   0  0  0  0  0  0  0  0  0  0  0  0
    7.3740   -7.4652    0.0000 C   0  0  0  0  0  0  0  0  0  0  0  0
    7.3731   -8.2902    0.0000 C   0  0  0  0  0  0  0  0  0  0  0  0
    8.0871   -8.7034    0.0000 C   0  0  0  0  0  0  0  0  0  0  0  0
    8.0862   -9.5284    0.0000 C   0  0  0  0  0  0  0  0  0  0  0  0
    8.8003   -9.9417    0.0000 C   0  0  0  0  0  0  0  0  0  0  0  0
    8.7994  -10.7667    0.0000 C   0  0  0  0  0  0  0  0  0  0  0  0
    9.5134  -11.1800    0.0000 C   0  0  0  0  0  0  0  0  0  0  0  0
    9.5125  -12.0050    0.0000 C   0  0  0  0  0  0  0  0  0  0  0  0
    7.3757   -5.8152    0.0000 O   0  0  0  0  0  0  0  0  0  0  0  0
    5.3538   -4.2809    0.0000 C   0  0  2  0  0  0  0  0  0  0  0  0
    5.7139   -5.0232    0.0000 C   0  0  2  0  0  0  0  0  0  0  0  0
    5.3581   -5.7675    0.0000 C   0  0  1  0  0  0  0  0  0  0  0  0
    4.5543   -5.9535    0.0000 C   0  0  1  0  0  0  0  0  0  0  0  0
    3.9078   -5.4410    0.0000 C   0  0  1  0  0  0  0  0  0  0  0  0
    3.9054   -4.6160    0.0000 C   0  0  2  0  0  0  0  0  0  0  0  0
    4.5489   -4.0997    0.0000 C   0  0  2  0  0  0  0  0  0  0  0  0
    3.1946   -5.8555    0.0000 C   0  0  2  0  0  0  0  0  0  0  0  0
    2.4789   -5.4451    0.0000 C   0  0  0  0  0  0  0  0  0  0  0  0
    2.4765   -4.6201    0.0000 C   0  0  0  0  0  0  0  0  0  0  0  0
    3.1897   -4.2055    0.0000 C   0  0  2  0  0  0  0  0  0  0  0  0
    4.4726   -3.2782    0.0000 C   0  0  0  0  0  0  0  0  0  0  0  0
    5.2302   -2.9518    0.0000 C   0  0  1  0  0  0  0  0  0  0  0  0
    5.7748   -3.5715    0.0000 C   0  0  2  0  0  0  0  0  0  0  0  0
    3.1873   -3.3806    0.0000 O   0  0  0  0  0  0  0  0  0  0  0  0
    2.4762   -2.9624    0.0000 C   0  0  0  0  0  0  0  0  0  0  0  0
    3.1970   -6.6805    0.0000 C   0  0  0  0  0  0  0  0  0  0  0  0
    2.4837   -7.0951    0.0000 O   0  0  0  0  0  0  0  0  0  0  0  0
    2.4861   -7.9201    0.0000 C   0  0  0  0  0  0  0  0  0  0  0  0
    3.9050   -3.9600    0.0000 C   0  0  0  0  0  0  0  0  0  0  0  0
    3.1900   -4.9775    0.0000 N   0  0  0  0  0  0  0  0  0  0  0  0
    2.4750   -6.1600    0.0000 C   0  0  0  0  0  0  0  0  0  0  0  0
    6.5125   -4.8160    0.0000 C   0  0  2  0  0  0  0  0  0  0  0  0
    6.5450   -3.1350    0.0000 C   0  0  2  0  0  0  0  0  0  0  0  0
    7.2600   -3.5750    0.0000 O   0  0  0  0  0  0  0  0  0  0  0  0
    3.9012   -6.2659    0.0000 H   0  0  0  0  0  0  0  0  0  0  0  0
    3.9656   -3.5163    0.0000 H   0  0  0  0  0  0  0  0  0  0  0  0
    6.1787   -4.2875    0.0000 H   0  0  0  0  0  0  0  0  0  0  0  0
    5.2302   -2.1268    0.0000 O   0  0  0  0  0  0  0  0  0  0  0  0
    5.3581   -6.5925    0.0000 H   0  0  0  0  0  0  0  0  0  0  0  0
    2.0075   -4.9775    0.0000 C   0  0  0  0  0  0  0  0  0  0  0  0
    7.2595   -2.7225    0.0000 O   0  0  0  0  0  0  0  0  0  0  0  0
    7.2595   -1.8975    0.0000 C   0  0  0  0  0  0  0  0  0  0  0  0
    4.5543   -6.7785    0.0000 O   0  0  0  0  0  0  0  0  0  0  0  0
    3.8399   -7.1910    0.0000 C   0  0  0  0  0  0  0  0  0  0  0  0
    7.9745   -3.9875    0.0000 C   0  0  0  0  0  0  0  0  0  0  0  0
    8.6889   -3.5750    0.0000 C   0  0  0  0  0  0  0  0  0  0  0  0
    7.9745   -4.8125    0.0000 O   0  0  0  0  0  0  0  0  0  0  0  0
    9.4034   -3.9875    0.0000 C   0  0  0  0  0  0  0  0  0  0  0  0
   10.1179   -3.5750    0.0000 C   0  0  0  0  0  0  0  0  0  0  0  0
   10.1179   -2.7500    0.0000 C   0  0  0  0  0  0  0  0  0  0  0  0
    9.4034   -2.3375    0.0000 C   0  0  0  0  0  0  0  0  0  0  0  0
    8.6889   -2.7500    0.0000 C   0  0  0  0  0  0  0  0  0  0  0  0
    7.3093   -5.0296    0.0000 O   0  0  0  0  0  0  0  0  0  0  0  0
   10.2266  -12.4182    0.0000 C   0  0  0  0  0  0  0  0  0  0  0  0
   10.2257  -13.2432    0.0000 C   0  0  0  0  0  0  0  0  0  0  0  0
   10.9397  -13.6565    0.0000 C   0  0  0  0  0  0  0  0  0  0  0  0
   10.9388  -14.4815    0.0000 C   0  0  0  0  0  0  0  0  0  0  0  0
   11.6528  -14.8947    0.0000 C   0  0  0  0  0  0  0  0  0  0  0  0
   11.6520  -15.7197    0.0000 C   0  0  0  0  0  0  0  0  0  0  0  0
   12.3660  -16.1330    0.0000 C   0  0  0  0  0  0  0  0  0  0  0  0
   12.3651  -16.9580    0.0000 C   0  0  0  0  0  0  0  0  0  0  0  0
  2  3  1  0  0  0  0
  3  4  1  0  0  0  0
  4  5  1  0  0  0  0
  5  6  1  0  0  0  0
  6  7  1  0  0  0  0
  7  8  1  0  0  0  0
  8  9  1  0  0  0  0
  9 10  1  0  0  0  0
 10 11  1  0  0  0  0
  2 12  2  0  0  0  0
  2  1  1  0  0  0  0
 13 14  1  0  0  0  0
 14 15  1  0  0  0  0
 15 16  1  0  0  0  0
 16 17  1  0  0  0  0
 17 18  1  0  0  0  0
 18 19  1  0  0  0  0
 19 13  1  0  0  0  0
 17 20  1  0  0  0  0
 20 21  1  0  0  0  0
 21 22  1  0  0  0  0
 22 23  1  0  0  0  0
 18 23  1  1  0  0  0
 19 24  1  0  0  0  0
 24 25  1  0  0  0  0
 25 26  1  0  0  0  0
 26 13  1  0  0  0  0
 23 27  1  6  0  0  0
 27 28  1  0  0  0  0
 20 29  1  1  0  0  0
 29 30  1  0  0  0  0
 30 31  1  0  0  0  0
 18 32  1  0  0  0  0
 15 32  1  0  0  0  0
 32 33  1  0  0  0  0
 33 34  1  0  0  0  0
 20 34  1  0  0  0  0
 14 35  1  0  0  0  0
 25 36  1  0  0  0  0
 36 35  1  0  0  0  0
 26 37  1  6  0  0  0
 17 38  1  1  0  0  0
 19 39  1  1  0  0  0
 13 40  1  1  0  0  0
 25 41  1  1  0  0  0
 15 42  1  6  0  0  0
 33 43  1  0  0  0  0
 36 44  1  1  0  0  0
 44 45  1  0  0  0  0
 16 46  1  6  0  0  0
 46 47  1  0  0  0  0
 37 48  1  0  0  0  0
 48 49  1  0  0  0  0
 48 50  2  0  0  0  0
 49 51  2  0  0  0  0
 51 52  1  0  0  0  0
 52 53  2  0  0  0  0
 53 54  1  0  0  0  0
 54 55  2  0  0  0  0
 55 49  1  0  0  0  0
 35 56  1  6  0  0  0
 14  1  1  1  0  0  0
 11 57  1  0  0  0  0
 57 58  1  0  0  0  0
 58 59  1  0  0  0  0
 59 60  1  0  0  0  0
 60 61  1  0  0  0  0
 61 62  1  0  0  0  0
 62 63  1  0  0  0  0
 63 64  1  0  0  0  0
M  END
>  <cdx:fragmentId>
220

$$$$
