990894.cdx
  Mrv1902 05222410222D          

 45 48  0  0  0  0            999 V2000
    2.8310   -7.6530    0.0000 O   0  0  0  0  0  0  0  0  0  0  0  0
    3.5455   -7.2405    0.0000 C   0  0  1  0  0  0  0  0  0  0  0  0
    3.5455   -6.4155    0.0000 C   0  0  1  0  0  0  0  0  0  0  0  0
    2.8310   -6.0030    0.0000 C   0  0  2  0  0  0  0  0  0  0  0  0
    2.1166   -6.4155    0.0000 C   0  0  2  0  0  0  0  0  0  0  0  0
    2.1166   -7.2405    0.0000 C   0  0  1  0  0  0  0  0  0  0  0  0
    4.2600   -6.0030    0.0000 O   0  0  0  0  0  0  0  0  0  0  0  0
    2.8310   -5.1780    0.0000 O   0  0  0  0  0  0  0  0  0  0  0  0
    1.4021   -6.0030    0.0000 O   0  0  0  0  0  0  0  0  0  0  0  0
    1.4021   -7.6530    0.0000 C   0  0  0  0  0  0  0  0  0  0  0  0
    0.6876   -7.2405    0.0000 O   0  0  0  0  0  0  0  0  0  0  0  0
    4.2600   -7.6530    0.0000 O   0  0  0  0  0  0  0  0  0  0  0  0
    4.9745   -7.2405    0.0000 C   0  0  0  0  0  0  0  0  0  0  0  0
    6.4034   -7.2405    0.0000 O   0  0  0  0  0  0  0  0  0  0  0  0
    5.6889   -7.6530    0.0000 C   0  0  1  0  0  0  0  0  0  0  0  0
    5.6889   -8.4780    0.0000 C   0  0  1  0  0  0  0  0  0  0  0  0
    6.4034   -8.8905    0.0000 C   0  0  1  0  0  0  0  0  0  0  0  0
    7.1179   -8.4780    0.0000 C   0  0  2  0  0  0  0  0  0  0  0  0
    7.1179   -7.6530    0.0000 C   0  0  1  0  0  0  0  0  0  0  0  0
    7.8323   -8.8905    0.0000 O   0  0  0  0  0  0  0  0  0  0  0  0
    6.4034   -9.7155    0.0000 O   0  0  0  0  0  0  0  0  0  0  0  0
    4.9745   -8.8905    0.0000 O   0  0  0  0  0  0  0  0  0  0  0  0
    7.8323   -7.2405    0.0000 O   0  0  0  0  0  0  0  0  0  0  0  0
    8.5468   -7.6530    0.0000 C   0  0  0  0  0  0  0  0  0  0  0  0
    9.9757   -7.6530    0.0000 O   0  0  0  0  0  0  0  0  0  0  0  0
    9.2613   -7.2405    0.0000 C   0  0  1  0  0  0  0  0  0  0  0  0
    9.2613   -6.4155    0.0000 C   0  0  2  0  0  0  0  0  0  0  0  0
    9.9757   -6.0030    0.0000 C   0  0  1  0  0  0  0  0  0  0  0  0
   10.6902   -6.4155    0.0000 C   0  0  2  0  0  0  0  0  0  0  0  0
   10.6902   -7.2405    0.0000 C   0  0  1  0  0  0  0  0  0  0  0  0
   11.4047   -6.0030    0.0000 O   0  0  0  0  0  0  0  0  0  0  0  0
    9.9757   -5.1780    0.0000 O   0  0  0  0  0  0  0  0  0  0  0  0
    8.5468   -6.0030    0.0000 O   0  0  0  0  0  0  0  0  0  0  0  0
   11.4047   -7.6530    0.0000 O   0  0  0  0  0  0  0  0  0  0  0  0
   10.5799   -8.4964    0.0000 O   0  0  0  0  0  0  0  0  0  0  0  0
   11.4047   -8.4780    0.0000 C   0  0  2  0  0  0  0  0  0  0  0  0
   11.6770   -9.2568    0.0000 C   0  0  2  0  0  0  0  0  0  0  0  0
   11.0206   -9.7564    0.0000 C   0  0  1  0  0  0  0  0  0  0  0  0
   10.3425   -9.2865    0.0000 C   0  0  1  0  0  0  0  0  0  0  0  0
    9.5637   -9.5588    0.0000 C   0  0  0  0  0  0  0  0  0  0  0  0
    9.3502  -10.3557    0.0000 O   0  0  0  0  0  0  0  0  0  0  0  0
   11.0389  -10.5812    0.0000 O   0  0  0  0  0  0  0  0  0  0  0  0
   12.4671   -9.4942    0.0000 O   0  0  0  0  0  0  0  0  0  0  0  0
   12.2180   -8.3399    0.0000 C   0  0  0  0  0  0  0  0  0  0  0  0
   12.7443   -8.9752    0.0000 O   0  0  0  0  0  0  0  0  0  0  0  0
  1  2  1  0  0  0  0
  2  3  1  0  0  0  0
  3  4  1  0  0  0  0
  4  5  1  0  0  0  0
  5  6  1  0  0  0  0
  1  6  1  0  0  0  0
  3  7  1  1  0  0  0
  4  8  1  6  0  0  0
  5  9  1  6  0  0  0
 10 11  1  0  0  0  0
  6 10  1  6  0  0  0
 12 13  1  0  0  0  0
 14 15  1  0  0  0  0
 15 16  1  0  0  0  0
 16 17  1  0  0  0  0
 17 18  1  0  0  0  0
 18 19  1  0  0  0  0
 14 19  1  0  0  0  0
 18 20  1  6  0  0  0
 17 21  1  1  0  0  0
 16 22  1  1  0  0  0
 23 24  1  0  0  0  0
 25 26  1  0  0  0  0
 26 27  1  0  0  0  0
 27 28  1  0  0  0  0
 28 29  1  0  0  0  0
 29 30  1  0  0  0  0
 25 30  1  0  0  0  0
 29 31  1  1  0  0  0
 28 32  1  6  0  0  0
 27 33  1  1  0  0  0
 35 36  1  0  0  0  0
 36 37  1  0  0  0  0
 37 38  1  0  0  0  0
 38 39  1  0  0  0  0
 35 39  1  0  0  0  0
 40 41  1  0  0  0  0
 39 40  1  1  0  0  0
 38 42  1  6  0  0  0
 37 43  1  1  0  0  0
 36 34  1  1  0  0  0
 30 34  1  1  0  0  0
 26 24  1  6  0  0  0
 19 23  1  6  0  0  0
 15 13  1  1  0  0  0
  2 12  1  1  0  0  0
 36 44  1  0  0  0  0
 44 45  1  0  0  0  0
M  END
>  <cdx:groupId>
63175

>  <cdx:fragmentId>
63108

$$$$
