9909.cdx
  Mrv1902 05222410242D          

 62 68  0  0  0  0            999 V2000
    6.4787   -6.4064    0.0000 O   0  0  0  0  0  0  0  0  0  0  0  0
    7.2108   -6.8319    0.0000 C   0  0  0  0  0  0  0  0  0  0  0  0
    7.2099   -7.6569    0.0000 C   0  0  0  0  0  0  0  0  0  0  0  0
    7.9240   -8.0702    0.0000 C   0  0  0  0  0  0  0  0  0  0  0  0
    7.9231   -8.8952    0.0000 C   0  0  0  0  0  0  0  0  0  0  0  0
    8.6371   -9.3084    0.0000 C   0  0  0  0  0  0  0  0  0  0  0  0
    8.6362  -10.1334    0.0000 C   0  0  0  0  0  0  0  0  0  0  0  0
    9.3503  -10.5467    0.0000 C   0  0  0  0  0  0  0  0  0  0  0  0
    9.3494  -11.3717    0.0000 C   0  0  0  0  0  0  0  0  0  0  0  0
   10.0634  -11.7850    0.0000 C   0  0  0  0  0  0  0  0  0  0  0  0
    7.9257   -6.4202    0.0000 O   0  0  0  0  0  0  0  0  0  0  0  0
    5.9038   -4.8859    0.0000 C   0  0  2  0  0  0  0  0  0  0  0  0
    6.2639   -5.6282    0.0000 C   0  0  2  0  0  0  0  0  0  0  0  0
    5.9081   -6.3725    0.0000 C   0  0  1  0  0  0  0  0  0  0  0  0
    5.1043   -6.5585    0.0000 C   0  0  1  0  0  0  0  0  0  0  0  0
    4.4578   -6.0460    0.0000 C   0  0  1  0  0  0  0  0  0  0  0  0
    4.4554   -5.2210    0.0000 C   0  0  2  0  0  0  0  0  0  0  0  0
    5.0989   -4.7047    0.0000 C   0  0  2  0  0  0  0  0  0  0  0  0
    3.7446   -6.4605    0.0000 C   0  0  2  0  0  0  0  0  0  0  0  0
    3.0289   -6.0501    0.0000 C   0  0  0  0  0  0  0  0  0  0  0  0
    3.0265   -5.2251    0.0000 C   0  0  0  0  0  0  0  0  0  0  0  0
    3.7397   -4.8105    0.0000 C   0  0  2  0  0  0  0  0  0  0  0  0
    5.0226   -3.8832    0.0000 C   0  0  0  0  0  0  0  0  0  0  0  0
    5.7802   -3.5568    0.0000 C   0  0  1  0  0  0  0  0  0  0  0  0
    6.3248   -4.1765    0.0000 C   0  0  2  0  0  0  0  0  0  0  0  0
    3.7470   -7.2855    0.0000 C   0  0  0  0  0  0  0  0  0  0  0  0
    3.0337   -7.7001    0.0000 O   0  0  0  0  0  0  0  0  0  0  0  0
    3.0361   -8.5251    0.0000 C   0  0  0  0  0  0  0  0  0  0  0  0
    4.4550   -4.5650    0.0000 C   0  0  0  0  0  0  0  0  0  0  0  0
    3.7400   -5.5825    0.0000 N   0  0  0  0  0  0  0  0  0  0  0  0
    3.0250   -6.7650    0.0000 C   0  0  0  0  0  0  0  0  0  0  0  0
    7.0625   -5.4210    0.0000 C   0  0  2  0  0  0  0  0  0  0  0  0
    7.0950   -3.7400    0.0000 C   0  0  2  0  0  0  0  0  0  0  0  0
    7.8100   -4.1800    0.0000 O   0  0  0  0  0  0  0  0  0  0  0  0
    4.4512   -6.8709    0.0000 H   0  0  0  0  0  0  0  0  0  0  0  0
    4.5156   -4.1213    0.0000 H   0  0  0  0  0  0  0  0  0  0  0  0
    6.7287   -4.8925    0.0000 H   0  0  0  0  0  0  0  0  0  0  0  0
    5.9081   -7.1975    0.0000 H   0  0  0  0  0  0  0  0  0  0  0  0
    2.5575   -5.5825    0.0000 C   0  0  0  0  0  0  0  0  0  0  0  0
    7.8095   -3.3275    0.0000 O   0  0  0  0  0  0  0  0  0  0  0  0
    7.8095   -2.5025    0.0000 C   0  0  0  0  0  0  0  0  0  0  0  0
    5.1043   -7.3835    0.0000 O   0  0  0  0  0  0  0  0  0  0  0  0
    4.3899   -7.7960    0.0000 C   0  0  0  0  0  0  0  0  0  0  0  0
    8.5245   -4.5925    0.0000 C   0  0  0  0  0  0  0  0  0  0  0  0
    9.2389   -4.1800    0.0000 C   0  0  0  0  0  0  0  0  0  0  0  0
    8.5245   -5.4175    0.0000 O   0  0  0  0  0  0  0  0  0  0  0  0
    9.9534   -4.5925    0.0000 C   0  0  0  0  0  0  0  0  0  0  0  0
   10.6679   -4.1800    0.0000 C   0  0  0  0  0  0  0  0  0  0  0  0
   10.6679   -3.3550    0.0000 C   0  0  0  0  0  0  0  0  0  0  0  0
    9.9534   -2.9425    0.0000 C   0  0  0  0  0  0  0  0  0  0  0  0
    9.2389   -3.3550    0.0000 C   0  0  0  0  0  0  0  0  0  0  0  0
    7.8593   -5.6346    0.0000 O   0  0  0  0  0  0  0  0  0  0  0  0
    5.7802   -2.7318    0.0000 O   0  0  0  0  0  0  0  0  0  0  0  0
    3.7373   -3.9856    0.0000 O   0  0  0  0  0  0  0  0  0  0  0  0
    3.0229   -3.5731    0.0000 C   0  0  0  0  0  0  0  0  0  0  0  0
   10.0625  -12.6100    0.0000 C   0  0  0  0  0  0  0  0  0  0  0  0
   10.7766  -13.0232    0.0000 C   0  0  0  0  0  0  0  0  0  0  0  0
   10.7757  -13.8482    0.0000 C   0  0  0  0  0  0  0  0  0  0  0  0
   11.4897  -14.2615    0.0000 C   0  0  0  0  0  0  0  0  0  0  0  0
   11.4888  -15.0865    0.0000 C   0  0  0  0  0  0  0  0  0  0  0  0
   12.2028  -15.4997    0.0000 C   0  0  0  0  0  0  0  0  0  0  0  0
    1.9741   -4.9991    0.0000 C   0  0  0  0  0  0  0  0  0  0  0  0
  2  3  1  0  0  0  0
  3  4  1  0  0  0  0
  4  5  1  0  0  0  0
  5  6  1  0  0  0  0
  6  7  1  0  0  0  0
  7  8  1  0  0  0  0
  8  9  1  0  0  0  0
  9 10  1  0  0  0  0
  2 11  2  0  0  0  0
  2  1  1  0  0  0  0
 12 13  1  0  0  0  0
 13 14  1  0  0  0  0
 14 15  1  0  0  0  0
 15 16  1  0  0  0  0
 16 17  1  0  0  0  0
 17 18  1  0  0  0  0
 18 12  1  0  0  0  0
 16 19  1  0  0  0  0
 19 20  1  0  0  0  0
 20 21  1  0  0  0  0
 21 22  1  0  0  0  0
 17 22  1  1  0  0  0
 18 23  1  0  0  0  0
 23 24  1  0  0  0  0
 24 25  1  0  0  0  0
 25 12  1  0  0  0  0
 19 26  1  1  0  0  0
 26 27  1  0  0  0  0
 27 28  1  0  0  0  0
 17 29  1  0  0  0  0
 14 29  1  0  0  0  0
 29 30  1  0  0  0  0
 30 31  1  0  0  0  0
 19 31  1  0  0  0  0
 13 32  1  0  0  0  0
 24 33  1  0  0  0  0
 33 32  1  0  0  0  0
 25 34  1  6  0  0  0
 16 35  1  1  0  0  0
 18 36  1  1  0  0  0
 12 37  1  1  0  0  0
 14 38  1  6  0  0  0
 30 39  1  0  0  0  0
 33 40  1  1  0  0  0
 40 41  1  0  0  0  0
 15 42  1  6  0  0  0
 42 43  1  0  0  0  0
 34 44  1  0  0  0  0
 44 45  1  0  0  0  0
 44 46  2  0  0  0  0
 45 47  2  0  0  0  0
 47 48  1  0  0  0  0
 48 49  2  0  0  0  0
 49 50  1  0  0  0  0
 50 51  2  0  0  0  0
 51 45  1  0  0  0  0
 32 52  1  6  0  0  0
 13  1  1  1  0  0  0
 24 53  1  1  0  0  0
 22 54  1  6  0  0  0
 54 55  1  0  0  0  0
 10 56  1  0  0  0  0
 56 57  1  0  0  0  0
 57 58  1  0  0  0  0
 58 59  1  0  0  0  0
 59 60  1  0  0  0  0
 60 61  1  0  0  0  0
 39 62  1  0  0  0  0
M  END
>  <cdx:fragmentId>
220

$$$$
