99110.cdx
  Mrv1902 05222410212D          

 48 51  0  0  0  0            999 V2000
    8.9100  -12.1059    0.0000 C   0  0  0  0  0  0  0  0  0  0  0  0
    9.7350  -12.1059    0.0000 C   0  0  0  0  0  0  0  0  0  0  0  0
   10.3184  -11.5225    0.0000 C   0  0  2  0  0  0  0  0  0  0  0  0
   10.3184  -10.6975    0.0000 C   0  0  1  0  0  0  0  0  0  0  0  0
    9.7350  -10.1141    0.0000 C   0  0  0  0  0  0  0  0  0  0  0  0
    8.9100  -10.1141    0.0000 C   0  0  0  0  0  0  0  0  0  0  0  0
   11.0806  -10.3818    0.0000 C   0  0  0  0  0  0  0  0  0  0  0  0
   11.0806  -11.8382    0.0000 C   0  0  0  0  0  0  0  0  0  0  0  0
   11.7351  -11.3360    0.0000 O   0  0  0  0  0  0  0  0  0  0  0  0
   11.7351  -10.8840    0.0000 O   0  0  0  0  0  0  0  0  0  0  0  0
    8.4975  -11.3914    0.0000 C   0  0  0  0  0  0  0  0  0  0  0  0
    7.6725  -11.3914    0.0000 C   0  0  0  0  0  0  0  0  0  0  0  0
    7.2600  -12.1059    0.0000 C   0  0  0  0  0  0  0  0  0  0  0  0
    7.6725  -12.8203    0.0000 C   0  0  0  0  0  0  0  0  0  0  0  0
    8.4975  -12.8203    0.0000 C   0  0  0  0  0  0  0  0  0  0  0  0
    8.4975   -9.3997    0.0000 C   0  0  0  0  0  0  0  0  0  0  0  0
    7.6725   -9.3997    0.0000 C   0  0  0  0  0  0  0  0  0  0  0  0
    7.2600  -10.1141    0.0000 C   0  0  0  0  0  0  0  0  0  0  0  0
    7.6725  -10.8286    0.0000 C   0  0  0  0  0  0  0  0  0  0  0  0
    8.4975  -10.8286    0.0000 C   0  0  0  0  0  0  0  0  0  0  0  0
    6.4350  -10.1141    0.0000 O   0  0  0  0  0  0  0  0  0  0  0  0
    6.4350  -12.1059    0.0000 O   0  0  0  0  0  0  0  0  0  0  0  0
    7.2600  -13.5348    0.0000 O   0  0  0  0  0  0  0  0  0  0  0  0
    7.6725  -14.2493    0.0000 C   0  0  0  0  0  0  0  0  0  0  0  0
    6.0225   -9.3997    0.0000 C   0  0  2  0  0  0  0  0  0  0  0  0
    6.4350   -8.6852    0.0000 O   0  0  0  0  0  0  0  0  0  0  0  0
    6.0225   -7.9707    0.0000 C   0  0  1  0  0  0  0  0  0  0  0  0
    5.1975   -7.9707    0.0000 C   0  0  2  0  0  0  0  0  0  0  0  0
    4.7850   -8.6852    0.0000 C   0  0  1  0  0  0  0  0  0  0  0  0
    5.1975   -9.3997    0.0000 C   0  0  1  0  0  0  0  0  0  0  0  0
    6.4350   -7.2563    0.0000 C   0  0  0  0  0  0  0  0  0  0  0  0
    3.9600   -8.6852    0.0000 O   0  0  0  0  0  0  0  0  0  0  0  0
    4.7850   -7.2563    0.0000 O   0  0  0  0  0  0  0  0  0  0  0  0
    4.7850  -10.1141    0.0000 O   0  0  0  0  0  0  0  0  0  0  0  0
    6.0225   -6.5418    0.0000 O   0  0  0  0  0  0  0  0  0  0  0  0
    6.4350   -5.8273    0.0000 C   0  0  0  0  0  0  0  0  0  0  0  0
    6.0225   -5.1128    0.0000 C   0  0  0  0  0  0  0  0  0  0  0  0
    7.2600   -5.8273    0.0000 O   0  0  0  0  0  0  0  0  0  0  0  0
    6.4350   -4.3984    0.0000 C   0  0  0  0  0  0  0  0  0  0  0  0
    6.0225   -3.6839    0.0000 C   0  0  0  0  0  0  0  0  0  0  0  0
    5.1975   -3.6839    0.0000 C   0  0  0  0  0  0  0  0  0  0  0  0
    4.7850   -4.3984    0.0000 C   0  0  0  0  0  0  0  0  0  0  0  0
    5.1975   -5.1128    0.0000 C   0  0  0  0  0  0  0  0  0  0  0  0
    4.7850   -2.9694    0.0000 O   0  0  0  0  0  0  0  0  0  0  0  0
    6.4350   -2.9694    0.0000 O   0  0  0  0  0  0  0  0  0  0  0  0
    6.0225   -2.2550    0.0000 C   0  0  0  0  0  0  0  0  0  0  0  0
    7.2600  -11.5431    0.0000 O   0  0  0  0  0  0  0  0  0  0  0  0
    6.4075  -11.5431    0.0000 C   0  0  0  0  0  0  0  0  0  0  0  0
  1  2  1  0  0  0  0
  2  3  1  0  0  0  0
  3  4  1  0  0  0  0
  4  5  1  0  0  0  0
  5  6  1  0  0  0  0
  4  7  1  1  0  0  0
  3  8  1  6  0  0  0
  8  9  1  0  0  0  0
  7 10  1  0  0  0  0
  1 11  2  0  0  0  0
 11 12  1  0  0  0  0
 12 13  2  0  0  0  0
 13 14  1  0  0  0  0
 14 15  2  0  0  0  0
 15  1  1  0  0  0  0
  6 16  2  0  0  0  0
 16 17  1  0  0  0  0
 17 18  2  0  0  0  0
 18 19  1  0  0  0  0
 19 20  2  0  0  0  0
 20  6  1  0  0  0  0
 18 21  1  0  0  0  0
 13 22  1  0  0  0  0
 14 23  1  0  0  0  0
 23 24  1  0  0  0  0
 25 21  1  1  0  0  0
 25 26  1  0  0  0  0
 26 27  1  0  0  0  0
 27 28  1  0  0  0  0
 28 29  1  0  0  0  0
 29 30  1  0  0  0  0
 30 25  1  0  0  0  0
 27 31  1  1  0  0  0
 29 32  1  1  0  0  0
 28 33  1  6  0  0  0
 30 34  1  6  0  0  0
 31 35  1  0  0  0  0
 35 36  1  0  0  0  0
 36 37  1  0  0  0  0
 36 38  2  0  0  0  0
 37 39  2  0  0  0  0
 39 40  1  0  0  0  0
 40 41  2  0  0  0  0
 41 42  1  0  0  0  0
 42 43  2  0  0  0  0
 43 37  1  0  0  0  0
 41 44  1  0  0  0  0
 40 45  1  0  0  0  0
 45 46  1  0  0  0  0
 19 47  1  0  0  0  0
 47 48  1  0  0  0  0
M  END
>  <cdx:fragmentId>
393

$$$$
