99116.cdx
  Mrv1902 05222410232D          

 20 21  0  0  0  0            999 V2000
   12.3134   -8.7748    0.0000 C   0  0  0  0  0  0  0  0  0  0  0  0
   11.5989   -8.3623    0.0000 C   0  0  0  0  0  0  0  0  0  0  0  0
   10.8844   -8.7748    0.0000 C   0  0  0  0  0  0  0  0  0  0  0  0
   10.1700   -8.3623    0.0000 C   0  0  0  0  0  0  0  0  0  0  0  0
    9.4555   -8.7748    0.0000 C   0  0  0  0  0  0  0  0  0  0  0  0
    8.7410   -8.3623    0.0000 C   0  0  0  0  0  0  0  0  0  0  0  0
    8.0266   -8.7748    0.0000 C   0  0  0  0  0  0  0  0  0  0  0  0
    7.3121   -8.3623    0.0000 C   0  0  0  0  0  0  0  0  0  0  0  0
    6.5976   -8.7748    0.0000 C   0  0  0  0  0  0  0  0  0  0  0  0
    5.8831   -8.3623    0.0000 C   0  0  0  0  0  0  0  0  0  0  0  0
    5.1687   -8.7748    0.0000 C   0  0  0  0  0  0  0  0  0  0  0  0
    2.3415   -8.2563    0.0000 C   0  0  0  0  0  0  0  0  0  0  0  0
    2.0866   -9.0409    0.0000 C   0  0  0  0  0  0  0  0  0  0  0  0
    2.6386   -9.6540    0.0000 C   0  0  0  0  0  0  0  0  0  0  0  0
    3.4456   -9.4825    0.0000 C   0  0  0  0  0  0  0  0  0  0  0  0
    3.1485   -8.0848    0.0000 C   0  0  0  0  0  0  0  0  0  0  0  0
    3.7005   -8.6979    0.0000 C   0  0  0  0  0  0  0  0  0  0  0  0
    4.4542   -8.3623    0.0000 C   0  0  0  0  0  0  0  0  0  0  0  0
    4.3680   -7.5418    0.0000 N   0  0  0  0  0  0  0  0  0  0  0  0
    3.5610   -7.3703    0.0000 O   0  0  0  0  0  0  0  0  0  0  0  0
 18 11  1  0  0  0  0
  2  1  1  0  0  0  0
  3  2  1  0  0  0  0
  4  3  1  0  0  0  0
  5  4  1  0  0  0  0
  6  5  1  0  0  0  0
  7  6  1  0  0  0  0
  8  7  1  0  0  0  0
  9  8  1  0  0  0  0
 10  9  1  0  0  0  0
 11 10  1  0  0  0  0
 15 17  1  0  0  0  0
 12 16  1  0  0  0  0
 13 12  1  0  0  0  0
 14 13  1  0  0  0  0
 15 14  2  0  0  0  0
 20 16  1  0  0  0  0
 17 16  2  0  0  0  0
 18 17  1  0  0  0  0
 19 18  2  0  0  0  0
 20 19  1  0  0  0  0
M  END
>  <cdx:fragmentId>
23

$$$$
