99113.cdx
  Mrv1902 05222410202D          

 33 35  0  0  0  0            999 V2000
    6.6166   -9.5700    0.0000 O   0  0  0  0  0  0  0  0  0  0  0  0
    7.3310   -9.1575    0.0000 C   0  0  0  0  0  0  0  0  0  0  0  0
    8.0455   -9.5700    0.0000 C   0  0  2  0  0  0  0  0  0  0  0  0
    8.0455  -10.3950    0.0000 C   0  0  2  0  0  0  0  0  0  0  0  0
    8.7600  -10.8075    0.0000 C   0  0  1  0  0  0  0  0  0  0  0  0
    9.4744  -10.3950    0.0000 C   0  0  2  0  0  0  0  0  0  0  0  0
    9.4744   -9.5700    0.0000 C   0  0  1  0  0  0  0  0  0  0  0  0
    8.7600   -9.1575    0.0000 O   0  0  0  0  0  0  0  0  0  0  0  0
    8.7600  -11.6325    0.0000 O   0  0  0  0  0  0  0  0  0  0  0  0
   10.1889   -9.1575    0.0000 O   0  0  0  0  0  0  0  0  0  0  0  0
    7.3310  -10.8075    0.0000 O   0  0  0  0  0  0  0  0  0  0  0  0
   10.1889  -10.8075    0.0000 O   0  0  0  0  0  0  0  0  0  0  0  0
   10.1889   -8.3325    0.0000 C   0  0  0  0  0  0  0  0  0  0  0  0
   10.9034   -7.9200    0.0000 C   0  0  0  0  0  0  0  0  0  0  0  0
   10.9034   -7.0950    0.0000 C   0  0  0  0  0  0  0  0  0  0  0  0
   10.1889   -6.6825    0.0000 C   0  0  0  0  0  0  0  0  0  0  0  0
    9.4744   -7.0950    0.0000 C   0  0  0  0  0  0  0  0  0  0  0  0
    9.4744   -7.9200    0.0000 C   0  0  0  0  0  0  0  0  0  0  0  0
   11.6179   -8.3325    0.0000 O   0  0  0  0  0  0  0  0  0  0  0  0
   11.6179   -9.1575    0.0000 C   0  0  0  0  0  0  0  0  0  0  0  0
   10.1889   -5.8575    0.0000 C   0  0  0  0  0  0  0  0  0  0  0  0
   10.9034   -5.4450    0.0000 C   0  0  0  0  0  0  0  0  0  0  0  0
    9.5168   -5.4694    0.0000 O   0  0  0  0  0  0  0  0  0  0  0  0
   10.9034   -4.5898    0.0000 C   0  0  0  0  0  0  0  0  0  0  0  0
    5.9021   -9.1575    0.0000 C   0  0  2  0  0  0  0  0  0  0  0  0
    5.8159   -8.3370    0.0000 O   0  0  0  0  0  0  0  0  0  0  0  0
    5.0089   -8.1655    0.0000 C   0  0  0  0  0  0  0  0  0  0  0  0
    4.5964   -8.8800    0.0000 C   0  0  2  0  0  0  0  0  0  0  0  0
    5.1484   -9.4931    0.0000 C   0  0  1  0  0  0  0  0  0  0  0  0
    4.9769  -10.3000    0.0000 O   0  0  0  0  0  0  0  0  0  0  0  0
    3.7759   -8.9662    0.0000 O   0  0  0  0  0  0  0  0  0  0  0  0
    4.1577   -8.1202    0.0000 C   0  0  0  0  0  0  0  0  0  0  0  0
    3.2712   -8.1202    0.0000 O   0  0  0  0  0  0  0  0  0  0  0  0
  1  2  1  0  0  0  0
  3  2  1  1  0  0  0
  3  4  1  0  0  0  0
  4  5  1  0  0  0  0
  5  6  1  0  0  0  0
  6  7  1  0  0  0  0
  7  8  1  0  0  0  0
  8  3  1  0  0  0  0
  5  9  1  1  0  0  0
  7 10  1  1  0  0  0
  4 11  1  6  0  0  0
  6 12  1  6  0  0  0
 10 13  1  0  0  0  0
 13 14  2  0  0  0  0
 14 15  1  0  0  0  0
 15 16  2  0  0  0  0
 16 17  1  0  0  0  0
 17 18  2  0  0  0  0
 18 13  1  0  0  0  0
 14 19  1  0  0  0  0
 19 20  1  0  0  0  0
 16 21  1  0  0  0  0
 21 22  1  0  0  0  0
 21 23  2  0  0  0  0
 22 24  1  0  0  0  0
 25  1  1  1  0  0  0
 25 26  1  0  0  0  0
 26 27  1  0  0  0  0
 27 28  1  0  0  0  0
 28 29  1  0  0  0  0
 29 25  1  0  0  0  0
 29 30  1  6  0  0  0
 28 31  1  6  0  0  0
 28 32  1  1  0  0  0
 32 33  1  0  0  0  0
M  END
>  <cdx:fragmentId>
5

$$$$
