99112.cdx
  Mrv1902 05222410212D          

 39 41  0  0  0  0            999 V2000
    1.7216  -10.8900    0.0000 O   0  0  0  0  0  0  0  0  0  0  0  0
    2.4360  -10.4775    0.0000 C   0  0  0  0  0  0  0  0  0  0  0  0
    3.1505  -10.8900    0.0000 C   0  0  2  0  0  0  0  0  0  0  0  0
    3.1505  -11.7150    0.0000 C   0  0  2  0  0  0  0  0  0  0  0  0
    3.8650  -12.1275    0.0000 C   0  0  1  0  0  0  0  0  0  0  0  0
    4.5794  -11.7150    0.0000 C   0  0  2  0  0  0  0  0  0  0  0  0
    4.5794  -10.8900    0.0000 C   0  0  1  0  0  0  0  0  0  0  0  0
    3.8650  -10.4775    0.0000 O   0  0  0  0  0  0  0  0  0  0  0  0
    3.8650  -12.9525    0.0000 O   0  0  0  0  0  0  0  0  0  0  0  0
    5.2939  -10.4775    0.0000 O   0  0  0  0  0  0  0  0  0  0  0  0
    2.4360  -12.1275    0.0000 O   0  0  0  0  0  0  0  0  0  0  0  0
    5.2939  -12.1275    0.0000 O   0  0  0  0  0  0  0  0  0  0  0  0
    5.2939   -9.6525    0.0000 C   0  0  0  0  0  0  0  0  0  0  0  0
    6.0084   -9.2400    0.0000 C   0  0  0  0  0  0  0  0  0  0  0  0
    6.0084   -8.4150    0.0000 C   0  0  0  0  0  0  0  0  0  0  0  0
    5.2939   -8.0025    0.0000 C   0  0  0  0  0  0  0  0  0  0  0  0
    4.5794   -8.4150    0.0000 C   0  0  0  0  0  0  0  0  0  0  0  0
    4.5794   -9.2400    0.0000 C   0  0  0  0  0  0  0  0  0  0  0  0
    6.7229   -9.6525    0.0000 O   0  0  0  0  0  0  0  0  0  0  0  0
    6.7229  -10.4775    0.0000 C   0  0  0  0  0  0  0  0  0  0  0  0
    5.2939   -7.1775    0.0000 C   0  0  1  0  0  0  0  0  0  0  0  0
    6.0084   -6.7650    0.0000 C   0  0  1  0  0  0  0  0  0  0  0  0
    4.6218   -6.7894    0.0000 O   0  0  0  0  0  0  0  0  0  0  0  0
    6.7229   -7.1775    0.0000 O   0  0  0  0  0  0  0  0  0  0  0  0
    7.4373   -6.7650    0.0000 C   0  0  0  0  0  0  0  0  0  0  0  0
    8.1518   -7.1775    0.0000 C   0  0  0  0  0  0  0  0  0  0  0  0
    8.8663   -6.7650    0.0000 C   0  0  0  0  0  0  0  0  0  0  0  0
    8.8663   -5.9400    0.0000 C   0  0  0  0  0  0  0  0  0  0  0  0
    8.1518   -5.5275    0.0000 C   0  0  0  0  0  0  0  0  0  0  0  0
    7.4373   -5.9400    0.0000 C   0  0  0  0  0  0  0  0  0  0  0  0
    8.1518   -8.0025    0.0000 O   0  0  0  0  0  0  0  0  0  0  0  0
    8.8663   -8.4150    0.0000 C   0  0  0  0  0  0  0  0  0  0  0  0
    9.5807   -5.5275    0.0000 C   0  0  0  0  0  0  0  0  0  0  0  0
   10.2952   -5.9400    0.0000 C   0  0  0  0  0  0  0  0  0  0  0  0
   11.0097   -5.5275    0.0000 C   0  0  0  0  0  0  0  0  0  0  0  0
   11.7242   -5.9400    0.0000 O   0  0  0  0  0  0  0  0  0  0  0  0
    6.0084   -5.9400    0.0000 C   0  0  0  0  0  0  0  0  0  0  0  0
    5.2835   -5.5215    0.0000 O   0  0  0  0  0  0  0  0  0  0  0  0
   11.0097   -4.7025    0.0000 O   0  0  0  0  0  0  0  0  0  0  0  0
  1  2  1  0  0  0  0
  3  2  1  1  0  0  0
  3  4  1  0  0  0  0
  4  5  1  0  0  0  0
  5  6  1  0  0  0  0
  6  7  1  0  0  0  0
  7  8  1  0  0  0  0
  8  3  1  0  0  0  0
  5  9  1  1  0  0  0
  7 10  1  1  0  0  0
  4 11  1  6  0  0  0
  6 12  1  6  0  0  0
 10 13  1  0  0  0  0
 13 14  2  0  0  0  0
 14 15  1  0  0  0  0
 15 16  2  0  0  0  0
 16 17  1  0  0  0  0
 17 18  2  0  0  0  0
 18 13  1  0  0  0  0
 14 19  1  0  0  0  0
 19 20  1  0  0  0  0
 16 21  1  0  0  0  0
 21 22  1  0  0  0  0
 21 23  1  6  0  0  0
 22 24  1  0  0  0  0
 24 25  1  0  0  0  0
 25 26  2  0  0  0  0
 26 27  1  0  0  0  0
 27 28  2  0  0  0  0
 28 29  1  0  0  0  0
 29 30  2  0  0  0  0
 30 25  1  0  0  0  0
 26 31  1  0  0  0  0
 31 32  1  0  0  0  0
 28 33  1  0  0  0  0
 33 34  2  0  0  0  0
 34 35  1  0  0  0  0
 35 36  1  0  0  0  0
 22 37  1  6  0  0  0
 37 38  1  0  0  0  0
 35 39  2  0  0  0  0
M  END
>  <cdx:fragmentId>
5

$$$$
