99119.cdx
  Mrv1902 05222410242D          

 15 16  0  0  0  0            999 V2000
    6.8474   -9.4935    0.0000 C   0  0  0  0  0  0  0  0  0  0  0  0
    6.1329   -9.0810    0.0000 C   0  0  0  0  0  0  0  0  0  0  0  0
    6.1329   -8.2560    0.0000 C   0  0  0  0  0  0  0  0  0  0  0  0
    6.8474   -7.8435    0.0000 C   0  0  0  0  0  0  0  0  0  0  0  0
    7.5618   -8.2560    0.0000 C   0  0  0  0  0  0  0  0  0  0  0  0
    8.2763   -7.8435    0.0000 C   0  0  2  0  0  0  0  0  0  0  0  0
    8.9908   -8.2560    0.0000 C   0  0  0  0  0  0  0  0  0  0  0  0
    8.9908   -9.0810    0.0000 C   0  0  0  0  0  0  0  0  0  0  0  0
    8.2763   -9.4935    0.0000 C   0  0  0  0  0  0  0  0  0  0  0  0
    7.5618   -9.0810    0.0000 C   0  0  0  0  0  0  0  0  0  0  0  0
    7.5618   -6.6060    0.0000 C   0  0  0  0  0  0  0  0  0  0  0  0
    8.2763   -7.0185    0.0000 C   0  0  0  0  0  0  0  0  0  0  0  0
    8.9908   -6.6060    0.0000 C   0  0  0  0  0  0  0  0  0  0  0  0
    5.4184   -7.8435    0.0000 C   0  0  0  0  0  0  0  0  0  0  0  0
    8.2763  -10.3185    0.0000 C   0  0  0  0  0  0  0  0  0  0  0  0
  1  2  1  0  0  0  0
  2  3  1  0  0  0  0
  3  4  1  0  0  0  0
  4  5  1  0  0  0  0
  5  6  1  0  0  0  0
  6  7  1  0  0  0  0
  7  8  1  0  0  0  0
  8  9  2  0  0  0  0
  9 10  1  0  0  0  0
  1 10  1  0  0  0  0
  5 10  1  0  0  0  0
 11 12  1  0  0  0  0
 12 13  1  0  0  0  0
  6 12  1  1  0  0  0
  3 14  2  0  0  0  0
  9 15  1  0  0  0  0
M  END
>  <cdx:fragmentId>
5

$$$$
