99117.cdx
  Mrv1902 05222410232D          

 12 12  0  0  0  0            999 V2000
    8.5762   -8.7320    0.0000 C   0  0  0  0  0  0  0  0  0  0  0  0
    8.5906   -7.9071    0.0000 C   0  0  0  0  0  0  0  0  0  0  0  0
    7.8835   -7.4822    0.0000 C   0  0  0  0  0  0  0  0  0  0  0  0
    7.1619   -7.8821    0.0000 C   0  0  0  0  0  0  0  0  0  0  0  0
    7.1475   -8.7070    0.0000 C   0  0  0  0  0  0  0  0  0  0  0  0
    7.8546   -9.1319    0.0000 C   0  0  0  0  0  0  0  0  0  0  0  0
    7.8402   -9.9568    0.0000 C   0  0  0  0  0  0  0  0  0  0  0  0
    6.4548   -7.4572    0.0000 O   0  0  0  0  0  0  0  0  0  0  0  0
    7.8979   -6.6573    0.0000 C   0  0  0  0  0  0  0  0  0  0  0  0
    7.0729   -6.6573    0.0000 C   0  0  0  0  0  0  0  0  0  0  0  0
    8.7229   -6.6573    0.0000 C   0  0  0  0  0  0  0  0  0  0  0  0
    7.9124   -5.8324    0.0000 O   0  0  0  0  0  0  0  0  0  0  0  0
  1  2  1  0  0  0  0
  2  3  1  0  0  0  0
  3  4  1  0  0  0  0
  4  5  1  0  0  0  0
  5  6  1  0  0  0  0
  6  1  1  0  0  0  0
  6  7  1  0  0  0  0
  4  8  1  0  0  0  0
  3  9  1  0  0  0  0
  9 10  1  0  0  0  0
  9 11  1  0  0  0  0
  9 12  1  0  0  0  0
M  END
>  <cdx:fragmentId>
5

$$$$
