99115.cdx
  Mrv1902 05222410222D          

 29 33  0  0  0  0            999 V2000
    3.9960  -10.8558    0.0000 C   0  0  0  0  0  0  0  0  0  0  0  0
    3.5111  -10.1883    0.0000 C   0  0  0  0  0  0  0  0  0  0  0  0
    3.9960   -9.5209    0.0000 C   0  0  0  0  0  0  0  0  0  0  0  0
    4.6091  -11.4078    0.0000 C   0  0  0  0  0  0  0  0  0  0  0  0
    4.7806  -10.6008    0.0000 C   0  0  0  0  0  0  0  0  0  0  0  0
    5.4951  -11.0133    0.0000 C   0  0  0  0  0  0  0  0  0  0  0  0
    6.2095  -10.6008    0.0000 C   0  0  0  0  0  0  0  0  0  0  0  0
    6.2095   -9.7758    0.0000 C   0  0  0  0  0  0  0  0  0  0  0  0
    6.9240   -9.3633    0.0000 C   0  0  0  0  0  0  0  0  0  0  0  0
    7.7086   -9.6183    0.0000 C   0  0  0  0  0  0  0  0  0  0  0  0
    8.1936   -8.9508    0.0000 C   0  0  0  0  0  0  0  0  0  0  0  0
    7.7086   -8.2834    0.0000 C   0  0  0  0  0  0  0  0  0  0  0  0
    7.9636   -7.4988    0.0000 C   0  0  0  0  0  0  0  0  0  0  0  0
    8.7706   -7.3272    0.0000 C   0  0  0  0  0  0  0  0  0  0  0  0
    9.0255   -6.5426    0.0000 C   0  0  0  0  0  0  0  0  0  0  0  0
    9.8325   -6.3711    0.0000 C   0  0  0  0  0  0  0  0  0  0  0  0
   10.3845   -6.9842    0.0000 C   0  0  0  0  0  0  0  0  0  0  0  0
   10.0874   -5.5865    0.0000 C   0  0  0  0  0  0  0  0  0  0  0  0
    9.5354   -4.9734    0.0000 C   0  0  0  0  0  0  0  0  0  0  0  0
   10.8944   -5.4149    0.0000 C   0  0  0  0  0  0  0  0  0  0  0  0
    7.4115   -6.8857    0.0000 C   0  0  0  0  0  0  0  0  0  0  0  0
    6.9240   -8.5383    0.0000 C   0  0  0  0  0  0  0  0  0  0  0  0
    6.9240   -7.7133    0.0000 C   0  0  0  0  0  0  0  0  0  0  0  0
    6.2095   -8.1258    0.0000 C   0  0  0  0  0  0  0  0  0  0  0  0
    5.4951   -8.5383    0.0000 C   0  0  0  0  0  0  0  0  0  0  0  0
    5.4951   -9.3633    0.0000 C   0  0  0  0  0  0  0  0  0  0  0  0
    4.7806   -9.7758    0.0000 C   0  0  0  0  0  0  0  0  0  0  0  0
    4.7806   -8.9508    0.0000 C   0  0  0  0  0  0  0  0  0  0  0  0
    5.4951  -11.8383    0.0000 O   0  0  0  0  0  0  0  0  0  0  0  0
  1  2  1  0  0  0  0
  2  3  1  0  0  0  0
  1  4  1  0  0  0  0
  4  5  1  0  0  0  0
  5  6  1  0  0  0  0
  6  7  1  0  0  0  0
  7  8  2  0  0  0  0
  8  9  1  0  0  0  0
  9 10  1  0  0  0  0
 10 11  1  0  0  0  0
 12 11  1  0  0  0  0
 12 13  1  0  0  0  0
 13 14  1  0  0  0  0
 14 15  2  0  0  0  0
 15 16  1  0  0  0  0
 16 17  1  0  0  0  0
 16 18  1  0  0  0  0
 18 19  1  0  0  0  0
 18 20  1  0  0  0  0
 13 21  1  0  0  0  0
 12 22  1  0  0  0  0
  9 22  1  0  0  0  0
 22 23  1  0  0  0  0
 22 24  1  0  0  0  0
 24 25  1  0  0  0  0
 25 26  2  0  0  0  0
  8 26  1  0  0  0  0
 26 27  1  0  0  0  0
  3 27  1  0  0  0  0
  5 27  1  0  0  0  0
 27 28  1  0  0  0  0
  1  5  1  0  0  0  0
  6 29  1  0  0  0  0
M  END
>  <cdx:fragmentId>
5

$$$$
