99126.cdx
  Mrv1902 05222410232D          

 28 32  0  0  0  0            999 V2000
    7.6917   -7.3984    0.0000 C   0  0  1  0  0  0  0  0  0  0  0  0
    7.4101   -8.1738    0.0000 C   0  0  2  0  0  0  0  0  0  0  0  0
    7.9409   -8.8055    0.0000 C   0  0  1  0  0  0  0  0  0  0  0  0
    8.7533   -8.6616    0.0000 C   0  0  0  0  0  0  0  0  0  0  0  0
    9.0349   -7.8862    0.0000 C   0  0  0  0  0  0  0  0  0  0  0  0
    8.5041   -7.2545    0.0000 C   0  0  0  0  0  0  0  0  0  0  0  0
    6.1600   -7.1225    0.0000 C   0  0  2  0  0  0  0  0  0  0  0  0
    6.5175   -7.9475    0.0000 C   0  0  2  0  0  0  0  0  0  0  0  0
    5.3350   -8.2225    0.0000 O   0  0  0  0  0  0  0  0  0  0  0  0
    6.4900   -6.2700    0.0000 C   0  0  0  0  0  0  0  0  0  0  0  0
    5.1425   -7.3700    0.0000 C   0  0  0  0  0  0  0  0  0  0  0  0
    5.7475   -6.4080    0.0000 O   0  0  0  0  0  0  0  0  0  0  0  0
    7.0675   -6.5450    0.0000 C   0  0  0  0  0  0  0  0  0  0  0  0
    6.5175   -8.7725    0.0000 H   0  0  0  0  0  0  0  0  0  0  0  0
    7.9053   -6.6015    0.0000 C   0  0  0  0  0  0  0  0  0  0  0  0
    6.9976   -8.8883    0.0000 H   0  0  0  0  0  0  0  0  0  0  0  0
    7.6593   -9.5809    0.0000 C   0  0  0  0  0  0  0  0  0  0  0  0
    8.1901  -10.2125    0.0000 C   0  0  1  0  0  0  0  0  0  0  0  0
    9.0024  -10.0687    0.0000 O   0  0  0  0  0  0  0  0  0  0  0  0
    9.2840   -9.2932    0.0000 C   0  0  0  0  0  0  0  0  0  0  0  0
   10.0964   -9.1494    0.0000 O   0  0  0  0  0  0  0  0  0  0  0  0
    7.2264   -9.2180    0.0000 C   0  0  0  0  0  0  0  0  0  0  0  0
    7.9084  -10.9880    0.0000 C   0  0  0  0  0  0  0  0  0  0  0  0
    7.1156  -11.2159    0.0000 C   0  0  0  0  0  0  0  0  0  0  0  0
    7.0874  -12.0404    0.0000 O   0  0  0  0  0  0  0  0  0  0  0  0
    7.8628  -12.3221    0.0000 C   0  0  0  0  0  0  0  0  0  0  0  0
    8.3703  -11.6716    0.0000 C   0  0  0  0  0  0  0  0  0  0  0  0
    4.4414   -6.9352    0.0000 O   0  0  0  0  0  0  0  0  0  0  0  0
  1  2  1  0  0  0  0
  2  3  1  0  0  0  0
  3  4  1  0  0  0  0
  4  5  2  0  0  0  0
  5  6  1  0  0  0  0
  6  1  1  0  0  0  0
  1  7  1  0  0  0  0
  2  8  1  0  0  0  0
  8  9  1  0  0  0  0
  7 10  1  0  0  0  0
  9 11  1  0  0  0  0
 11  7  1  0  0  0  0
  7 12  1  6  0  0  0
 10 13  2  0  0  0  0
  8 13  1  0  0  0  0
  8 14  1  1  0  0  0
  1 15  1  1  0  0  0
  2 16  1  1  0  0  0
  3 17  1  0  0  0  0
 17 18  1  0  0  0  0
 18 19  1  0  0  0  0
 19 20  1  0  0  0  0
 20  4  1  0  0  0  0
 20 21  2  0  0  0  0
  3 22  1  6  0  0  0
 18 23  1  1  0  0  0
 23 24  2  0  0  0  0
 24 25  1  0  0  0  0
 25 26  1  0  0  0  0
 26 27  2  0  0  0  0
 27 23  1  0  0  0  0
 11 28  2  0  0  0  0
M  END
>  <cdx:fragmentId>
124134

$$$$
