99122.cdx
  Mrv1902 05222410252D          

 15 15  0  0  0  0            999 V2000
    6.4216   -6.8338    0.0000 C   0  0  0  0  0  0  0  0  0  0  0  0
    6.4216   -7.6587    0.0000 C   0  0  0  0  0  0  0  0  0  0  0  0
    7.2063   -7.9137    0.0000 C   0  0  0  0  0  0  0  0  0  0  0  0
    7.6912   -7.2462    0.0000 C   0  0  1  0  0  0  0  0  0  0  0  0
    7.2063   -6.5788    0.0000 O   0  0  0  0  0  0  0  0  0  0  0  0
    5.7542   -6.3488    0.0000 O   0  0  0  0  0  0  0  0  0  0  0  0
    5.7542   -8.1437    0.0000 N   0  0  0  0  0  0  0  0  0  0  0  0
    5.9677   -8.9406    0.0000 C   0  0  0  0  0  0  0  0  0  0  0  0
    5.3844   -9.5239    0.0000 O   0  0  0  0  0  0  0  0  0  0  0  0
    6.7646   -9.1541    0.0000 C   0  0  0  0  0  0  0  0  0  0  0  0
    8.5162   -7.2462    0.0000 C   0  0  2  0  0  0  0  0  0  0  0  0
    8.9287   -6.5318    0.0000 O   0  0  0  0  0  0  0  0  0  0  0  0
    8.9287   -7.9607    0.0000 C   0  0  0  0  0  0  0  0  0  0  0  0
    9.7537   -7.9607    0.0000 O   0  0  0  0  0  0  0  0  0  0  0  0
    8.1037   -7.9607    0.0000 H   0  0  0  0  0  0  0  0  0  0  0  0
  1  2  1  0  0  0  0
  2  3  2  0  0  0  0
  3  4  1  0  0  0  0
  4  5  1  0  0  0  0
  5  1  1  0  0  0  0
  1  6  2  0  0  0  0
  2  7  1  0  0  0  0
  7  8  1  0  0  0  0
  8  9  2  0  0  0  0
  8 10  1  0  0  0  0
  4 11  1  0  0  0  0
 11 12  1  6  0  0  0
 11 13  1  0  0  0  0
 13 14  1  0  0  0  0
  4 15  1  6  0  0  0
M  END
>  <cdx:fragmentId>
5

$$$$
