99120.cdx
  Mrv1902 05222410252D          

 40 43  0  0  0  0            999 V2000
    6.2180   -9.3461    0.0000 C   0  0  0  0  0  0  0  0  0  0  0  0
    5.5035   -9.7586    0.0000 C   0  0  0  0  0  0  0  0  0  0  0  0
    5.5035  -10.5836    0.0000 C   0  0  1  0  0  0  0  0  0  0  0  0
    6.2180  -10.9961    0.0000 C   0  0  0  0  0  0  0  0  0  0  0  0
    6.9325  -10.5836    0.0000 C   0  0  0  0  0  0  0  0  0  0  0  0
    7.6469  -10.9961    0.0000 C   0  0  0  0  0  0  0  0  0  0  0  0
    8.3614  -10.5836    0.0000 C   0  0  0  0  0  0  0  0  0  0  0  0
    8.3614   -9.7586    0.0000 C   0  0  1  0  0  0  0  0  0  0  0  0
    9.0759   -9.3461    0.0000 C   0  0  1  0  0  0  0  0  0  0  0  0
    9.8605   -9.6010    0.0000 C   0  0  0  0  0  0  0  0  0  0  0  0
   10.3454   -8.9336    0.0000 C   0  0  0  0  0  0  0  0  0  0  0  0
    9.8605   -8.2661    0.0000 C   0  0  1  0  0  0  0  0  0  0  0  0
    9.0759   -8.5211    0.0000 C   0  0  1  0  0  0  0  0  0  0  0  0
    8.3614   -8.1086    0.0000 C   0  0  1  0  0  0  0  0  0  0  0  0
    7.6469   -8.5211    0.0000 C   0  0  2  0  0  0  0  0  0  0  0  0
    7.6469   -9.3461    0.0000 C   0  0  2  0  0  0  0  0  0  0  0  0
    6.9325   -9.7586    0.0000 C   0  0  1  0  0  0  0  0  0  0  0  0
    4.7891  -10.9961    0.0000 O   0  0  0  0  0  0  0  0  0  0  0  0
    6.9325   -8.1086    0.0000 O   0  0  0  0  0  0  0  0  0  0  0  0
    8.3614   -7.2836    0.0000 O   0  0  0  0  0  0  0  0  0  0  0  0
    9.0759  -10.1711    0.0000 O   0  0  0  0  0  0  0  0  0  0  0  0
    9.1621   -7.7006    0.0000 C   0  0  0  0  0  0  0  0  0  0  0  0
    6.9325   -8.9336    0.0000 C   0  0  0  0  0  0  0  0  0  0  0  0
   10.1155   -7.4815    0.0000 C   0  0  1  0  0  0  0  0  0  0  0  0
   10.9224   -7.3100    0.0000 C   0  0  0  0  0  0  0  0  0  0  0  0
    9.5634   -6.8684    0.0000 O   0  0  0  0  0  0  0  0  0  0  0  0
    8.3614   -8.9336    0.0000 H   0  0  0  0  0  0  0  0  0  0  0  0
    7.6469  -10.1711    0.0000 H   0  0  0  0  0  0  0  0  0  0  0  0
    4.0746  -10.5836    0.0000 C   0  0  0  0  0  0  0  0  0  0  0  0
    3.3601  -10.9961    0.0000 C   0  0  0  0  0  0  0  0  0  0  0  0
    4.0746   -9.7586    0.0000 O   0  0  0  0  0  0  0  0  0  0  0  0
    6.1079   -8.1336    0.0000 C   0  0  0  0  0  0  0  0  0  0  0  0
    5.6738   -7.4320    0.0000 O   0  0  0  0  0  0  0  0  0  0  0  0
    5.7173   -8.8603    0.0000 C   0  0  0  0  0  0  0  0  0  0  0  0
    7.6469   -6.8711    0.0000 C   0  0  0  0  0  0  0  0  0  0  0  0
    7.6469   -6.0461    0.0000 O   0  0  0  0  0  0  0  0  0  0  0  0
    6.9325   -7.2836    0.0000 C   0  0  0  0  0  0  0  0  0  0  0  0
    9.5634   -6.0434    0.0000 C   0  0  0  0  0  0  0  0  0  0  0  0
    8.8489   -5.6309    0.0000 O   0  0  0  0  0  0  0  0  0  0  0  0
   10.2779   -5.6309    0.0000 C   0  0  0  0  0  0  0  0  0  0  0  0
  1  2  1  0  0  0  0
  2  3  1  0  0  0  0
  3  4  1  0  0  0  0
  4  5  1  0  0  0  0
  5  6  2  0  0  0  0
  6  7  1  0  0  0  0
  7  8  1  0  0  0  0
  8  9  1  0  0  0  0
  9 10  1  0  0  0  0
 10 11  1  0  0  0  0
 12 11  1  1  0  0  0
 12 13  1  0  0  0  0
  9 13  1  0  0  0  0
 13 14  1  0  0  0  0
 14 15  1  0  0  0  0
 15 16  1  0  0  0  0
  8 16  1  0  0  0  0
 16 17  1  0  0  0  0
  5 17  1  0  0  0  0
  1 17  1  0  0  0  0
  3 18  1  1  0  0  0
 15 19  1  6  0  0  0
 14 20  1  1  0  0  0
  9 21  1  1  0  0  0
 13 22  1  1  0  0  0
 17 23  1  1  0  0  0
 24 25  1  0  0  0  0
 24 26  1  6  0  0  0
 12 24  1  0  0  0  0
  8 27  1  1  0  0  0
 16 28  1  6  0  0  0
 18 29  1  0  0  0  0
 29 30  1  0  0  0  0
 29 31  2  0  0  0  0
 19 32  1  0  0  0  0
 32 33  2  0  0  0  0
 32 34  1  0  0  0  0
 20 35  1  0  0  0  0
 35 36  2  0  0  0  0
 35 37  1  0  0  0  0
 26 38  1  0  0  0  0
 38 39  2  0  0  0  0
 38 40  1  0  0  0  0
M  END
>  <cdx:fragmentId>
5

$$$$
