99125.cdx
  Mrv1902 05222410242D          

 21 23  0  0  0  0            999 V2000
    7.7642   -7.6397    0.0000 C   0  0  0  0  0  0  0  0  0  0  0  0
    8.4787   -8.0522    0.0000 C   0  0  0  0  0  0  0  0  0  0  0  0
    8.4787   -8.8772    0.0000 C   0  0  0  0  0  0  0  0  0  0  0  0
    7.7642   -9.2897    0.0000 C   0  0  0  0  0  0  0  0  0  0  0  0
    7.0498   -8.8772    0.0000 C   0  0  0  0  0  0  0  0  0  0  0  0
    6.3353   -9.2897    0.0000 C   0  0  0  0  0  0  0  0  0  0  0  0
    5.6208   -8.8772    0.0000 C   0  0  0  0  0  0  0  0  0  0  0  0
    4.9063   -9.2897    0.0000 C   0  0  0  0  0  0  0  0  0  0  0  0
    4.1919   -8.8772    0.0000 C   0  0  0  0  0  0  0  0  0  0  0  0
    4.1919   -8.0522    0.0000 C   0  0  0  0  0  0  0  0  0  0  0  0
    4.9063   -7.6397    0.0000 C   0  0  0  0  0  0  0  0  0  0  0  0
    5.6208   -8.0522    0.0000 C   0  0  0  0  0  0  0  0  0  0  0  0
    6.3353   -7.6397    0.0000 C   0  0  0  0  0  0  0  0  0  0  0  0
    7.0498   -8.0522    0.0000 C   0  0  0  0  0  0  0  0  0  0  0  0
    6.3353   -6.8147    0.0000 O   0  0  0  0  0  0  0  0  0  0  0  0
    6.3353  -10.1147    0.0000 O   0  0  0  0  0  0  0  0  0  0  0  0
    9.1932   -9.2897    0.0000 C   0  0  0  0  0  0  0  0  0  0  0  0
    9.9076   -8.8772    0.0000 O   0  0  0  0  0  0  0  0  0  0  0  0
    4.9063   -6.8147    0.0000 O   0  0  0  0  0  0  0  0  0  0  0  0
    7.7642   -6.8147    0.0000 O   0  0  0  0  0  0  0  0  0  0  0  0
    3.4774   -9.2897    0.0000 C   0  0  0  0  0  0  0  0  0  0  0  0
  1  2  1  0  0  0  0
  2  3  2  0  0  0  0
  3  4  1  0  0  0  0
  4  5  2  0  0  0  0
  5  6  1  0  0  0  0
  6  7  1  0  0  0  0
  7  8  1  0  0  0  0
  8  9  2  0  0  0  0
  9 10  1  0  0  0  0
 10 11  2  0  0  0  0
 11 12  1  0  0  0  0
  7 12  2  0  0  0  0
 12 13  1  0  0  0  0
 13 14  1  0  0  0  0
  5 14  1  0  0  0  0
  1 14  2  0  0  0  0
 13 15  2  0  0  0  0
  6 16  2  0  0  0  0
 17 18  1  0  0  0  0
  3 17  1  0  0  0  0
 11 19  1  0  0  0  0
  1 20  1  0  0  0  0
  9 21  1  0  0  0  0
M  END
>  <cdx:fragmentId>
5

$$$$
