991354.cdx
  Mrv1902 05222410232D          

 31 31  0  0  0  0            999 V2000
    3.1468   -8.0014    0.0000 C   0  0  0  0  0  0  0  0  0  0  0  0
    3.1468   -8.8264    0.0000 C   0  0  0  0  0  0  0  0  0  0  0  0
    3.8613   -9.2389    0.0000 C   0  0  0  0  0  0  0  0  0  0  0  0
    4.5757   -8.8264    0.0000 C   0  0  0  0  0  0  0  0  0  0  0  0
    4.5757   -8.0014    0.0000 C   0  0  0  0  0  0  0  0  0  0  0  0
    3.8613   -7.5889    0.0000 C   0  0  0  0  0  0  0  0  0  0  0  0
    2.4323   -7.5889    0.0000 O   0  0  0  0  0  0  0  0  0  0  0  0
    2.4323   -9.2389    0.0000 O   0  0  0  0  0  0  0  0  0  0  0  0
    3.8613   -6.7639    0.0000 C   0  0  0  0  0  0  0  0  0  0  0  0
    4.5757   -6.3514    0.0000 C   0  0  0  0  0  0  0  0  0  0  0  0
    5.2902   -7.5889    0.0000 C   0  0  0  0  0  0  0  0  0  0  0  0
    6.0047   -8.0014    0.0000 C   0  0  0  0  0  0  0  0  0  0  0  0
    6.7192   -7.5889    0.0000 C   0  0  0  0  0  0  0  0  0  0  0  0
    7.4336   -8.0014    0.0000 O   0  0  0  0  0  0  0  0  0  0  0  0
    6.7192   -6.7639    0.0000 O   0  0  0  0  0  0  0  0  0  0  0  0
    8.1481   -7.5889    0.0000 C   0  0  0  0  0  0  0  0  0  0  0  0
    8.8626   -8.0014    0.0000 C   0  0  0  0  0  0  0  0  0  0  0  0
    8.1481   -6.7639    0.0000 C   0  0  0  0  0  0  0  0  0  0  0  0
    9.5770   -7.5889    0.0000 C   0  0  0  0  0  0  0  0  0  0  0  0
   10.2915   -8.0014    0.0000 C   0  0  0  0  0  0  0  0  0  0  0  0
   11.0060   -7.5889    0.0000 C   0  0  0  0  0  0  0  0  0  0  0  0
   11.0060   -6.7639    0.0000 C   0  0  0  0  0  0  0  0  0  0  0  0
   10.2915   -6.3514    0.0000 C   0  0  0  0  0  0  0  0  0  0  0  0
    9.5770   -6.7639    0.0000 C   0  0  0  0  0  0  0  0  0  0  0  0
   11.7205   -6.3514    0.0000 O   0  0  0  0  0  0  0  0  0  0  0  0
   11.7205   -8.0014    0.0000 O   0  0  0  0  0  0  0  0  0  0  0  0
    4.5757   -5.5264    0.0000 O   0  0  0  0  0  0  0  0  0  0  0  0
    5.2902   -6.7639    0.0000 O   0  0  0  0  0  0  0  0  0  0  0  0
    7.4336   -6.3514    0.0000 O   0  0  0  0  0  0  0  0  0  0  0  0
    8.8626   -6.3514    0.0000 O   0  5  0  0  0  0  0  0  0  0  0  0
    9.2751   -7.0659    0.0000 K   0  3  0  0  0  0  0  0  0  0  0  0
  1  2  2  0  0  0  0
  2  3  1  0  0  0  0
  3  4  2  0  0  0  0
  4  5  1  0  0  0  0
  5  6  2  0  0  0  0
  6  1  1  0  0  0  0
  1  7  1  0  0  0  0
  2  8  1  0  0  0  0
  6  9  1  0  0  0  0
  9 10  1  0  0  0  0
  5 11  1  0  0  0  0
 11 12  2  0  0  0  0
 12 13  1  0  0  0  0
 13 14  1  0  0  0  0
 13 15  2  0  0  0  0
 14 16  1  0  0  0  0
 16 17  1  0  0  0  0
 16 18  1  0  0  0  0
 17 19  1  0  0  0  0
 19 20  2  0  0  0  0
 20 21  1  0  0  0  0
 21 22  2  0  0  0  0
 22 23  1  0  0  0  0
 23 24  2  0  0  0  0
 24 19  1  0  0  0  0
 22 25  1  0  0  0  0
 21 26  1  0  0  0  0
 10 27  2  0  0  0  0
 10 28  1  0  0  0  0
 18 29  2  0  0  0  0
 18 30  1  0  0  0  0
M  CHG  2  30  -1  31   1
M  STY  1   1 SUP
M  SAL   1  2  30  31
M  SBL   1  1  31
M  SMT   1 O-K\S+
M  SAP   1  1  30  18  1
M  END
>  <cdx:fragmentId>
5

$$$$
