99131.cdx
  Mrv1902 05222410242D          

 30 32  0  0  0  0            999 V2000
    5.9126   -9.8091    0.0000 C   0  0  0  0  0  0  0  0  0  0  0  0
    5.9126   -8.9841    0.0000 C   0  0  0  0  0  0  0  0  0  0  0  0
    6.6271   -8.5716    0.0000 C   0  0  0  0  0  0  0  0  0  0  0  0
    7.3415   -8.9841    0.0000 C   0  0  0  0  0  0  0  0  0  0  0  0
    8.0560   -8.5716    0.0000 C   0  0  0  0  0  0  0  0  0  0  0  0
    8.7705   -8.9841    0.0000 C   0  0  0  0  0  0  0  0  0  0  0  0
    8.7705   -9.8091    0.0000 C   0  0  0  0  0  0  0  0  0  0  0  0
    8.0560  -10.2216    0.0000 C   0  0  0  0  0  0  0  0  0  0  0  0
    7.3415   -9.8091    0.0000 C   0  0  0  0  0  0  0  0  0  0  0  0
    6.6271  -10.2216    0.0000 O   0  0  0  0  0  0  0  0  0  0  0  0
    9.4850   -8.5716    0.0000 C   0  0  0  0  0  0  0  0  0  0  0  0
    9.4850   -7.7466    0.0000 C   0  0  0  0  0  0  0  0  0  0  0  0
    8.7705   -7.3341    0.0000 C   0  0  0  0  0  0  0  0  0  0  0  0
    8.0560   -7.7466    0.0000 O   0  0  0  0  0  0  0  0  0  0  0  0
    8.7705   -6.5091    0.0000 O   0  0  0  0  0  0  0  0  0  0  0  0
    5.5001  -10.5235    0.0000 C   0  0  0  0  0  0  0  0  0  0  0  0
    5.0876   -9.8091    0.0000 C   0  0  0  0  0  0  0  0  0  0  0  0
    3.0560   -8.9905    0.0000 C   0  0  0  0  0  0  0  0  0  0  0  0
    3.7667   -7.7509    0.0000 C   0  0  0  0  0  0  0  0  0  0  0  0
    4.4874   -9.8112    0.0000 O   0  0  0  0  0  0  0  0  0  0  0  0
    3.7692   -8.5759    0.0000 C   0  0  0  0  0  0  0  0  0  0  0  0
    4.4849   -8.9862    0.0000 C   0  0  0  0  0  0  0  0  0  0  0  0
    5.1981   -8.5716    0.0000 O   0  0  0  0  0  0  0  0  0  0  0  0
    5.1318   -5.3172    0.0000 C   0  0  0  0  0  0  0  0  0  0  0  0
    5.1572   -6.1418    0.0000 C   0  0  0  0  0  0  0  0  0  0  0  0
    5.8841   -6.5321    0.0000 C   0  0  0  0  0  0  0  0  0  0  0  0
    6.5855   -6.0977    0.0000 C   0  0  0  0  0  0  0  0  0  0  0  0
    5.9096   -7.3567    0.0000 C   0  0  0  0  0  0  0  0  0  0  0  0
    5.2082   -7.7910    0.0000 O   0  0  0  0  0  0  0  0  0  0  0  0
    6.6271   -7.7466    0.0000 O   0  0  0  0  0  0  0  0  0  0  0  0
 28 30  1  0  0  0  0
 21 18  1  0  0  0  0
  1  2  1  0  0  0  0
  2  3  1  0  0  0  0
  3  4  1  0  0  0  0
  4  5  1  0  0  0  0
  5  6  2  0  0  0  0
  6  7  1  0  0  0  0
  7  8  2  0  0  0  0
  8  9  1  0  0  0  0
  4  9  2  0  0  0  0
  9 10  1  0  0  0  0
  1 10  1  0  0  0  0
 11 12  2  0  0  0  0
 12 13  1  0  0  0  0
 13 14  1  0  0  0  0
 14  5  1  0  0  0  0
 11  6  1  0  0  0  0
 13 15  2  0  0  0  0
  1 16  1  0  0  0  0
  1 17  1  0  0  0  0
  3 30  1  0  0  0  0
  2 23  1  0  0  0  0
 21 19  1  0  0  0  0
 22 20  2  0  0  0  0
 22 21  1  0  0  0  0
 23 22  1  0  0  0  0
 24 25  1  0  0  0  0
 25 26  2  0  0  0  0
 26 27  1  0  0  0  0
 26 28  1  0  0  0  0
 28 29  2  0  0  0  0
M  END
>  <cdx:fragmentId>
5

$$$$
