991477.cdx
  Mrv1902 05222410272D          

 41 45  0  0  0  0            999 V2000
    9.5511  -12.7864    0.0000 C   0  0  0  0  0  0  0  0  0  0  0  0
   10.9801  -10.3114    0.0000 O   0  0  0  0  0  0  0  0  0  0  0  0
    9.5511   -9.4864    0.0000 O   0  0  0  0  0  0  0  0  0  0  0  0
    8.1222  -11.9614    0.0000 O   0  0  0  0  0  0  0  0  0  0  0  0
   10.9801  -11.9614    0.0000 O   0  0  0  0  0  0  0  0  0  0  0  0
    6.6932  -12.7864    0.0000 O   0  0  0  0  0  0  0  0  0  0  0  0
    2.4064   -7.8364    0.0000 O   0  0  0  0  0  0  0  0  0  0  0  0
    7.4077   -5.7739    0.0000 O   0  0  0  0  0  0  0  0  0  0  0  0
    8.8367   -6.5989    0.0000 O   0  0  0  0  0  0  0  0  0  0  0  0
    9.5511  -11.9614    0.0000 C   0  0  1  0  0  0  0  0  0  0  0  0
   10.2656  -11.5489    0.0000 C   0  0  1  0  0  0  0  0  0  0  0  0
   10.2656  -10.7239    0.0000 C   0  0  2  0  0  0  0  0  0  0  0  0
    9.5511  -10.3114    0.0000 C   0  0  2  0  0  0  0  0  0  0  0  0
    8.8367  -11.5489    0.0000 O   0  0  0  0  0  0  0  0  0  0  0  0
    8.8367  -10.7239    0.0000 C   0  0  1  0  0  0  0  0  0  0  0  0
    8.1222  -10.3114    0.0000 O   0  0  0  0  0  0  0  0  0  0  0  0
    5.9788  -11.5489    0.0000 C   0  0  0  0  0  0  0  0  0  0  0  0
    6.6932  -11.9614    0.0000 C   0  0  1  0  0  0  0  0  0  0  0  0
    7.4077  -11.5489    0.0000 C   0  0  1  0  0  0  0  0  0  0  0  0
    7.4077  -10.7239    0.0000 C   0  0  2  0  0  0  0  0  0  0  0  0
    5.9788  -10.7239    0.0000 O   0  0  0  0  0  0  0  0  0  0  0  0
    6.6932  -10.3114    0.0000 C   0  0  1  0  0  0  0  0  0  0  0  0
    3.8354  -10.3114    0.0000 O   0  0  0  0  0  0  0  0  0  0  0  0
    5.2643  -10.3114    0.0000 O   0  0  0  0  0  0  0  0  0  0  0  0
    3.8354   -7.8364    0.0000 C   0  0  0  0  0  0  0  0  0  0  0  0
    3.1209   -8.2489    0.0000 C   0  0  0  0  0  0  0  0  0  0  0  0
    3.1209   -9.0739    0.0000 C   0  0  0  0  0  0  0  0  0  0  0  0
    3.8354   -9.4864    0.0000 C   0  0  0  0  0  0  0  0  0  0  0  0
    5.2643   -7.8364    0.0000 O   0  0  0  0  0  0  0  0  0  0  0  0
    4.5498   -8.2489    0.0000 C   0  0  0  0  0  0  0  0  0  0  0  0
    4.5498   -9.0739    0.0000 C   0  0  0  0  0  0  0  0  0  0  0  0
    5.2643   -9.4864    0.0000 C   0  0  0  0  0  0  0  0  0  0  0  0
    5.9788   -8.2489    0.0000 C   0  0  0  0  0  0  0  0  0  0  0  0
    5.9788   -9.0739    0.0000 C   0  0  0  0  0  0  0  0  0  0  0  0
    6.6932   -9.4864    0.0000 O   0  0  0  0  0  0  0  0  0  0  0  0
    7.4077   -6.5989    0.0000 C   0  0  0  0  0  0  0  0  0  0  0  0
    6.6932   -7.0114    0.0000 C   0  0  0  0  0  0  0  0  0  0  0  0
    6.6932   -7.8364    0.0000 C   0  0  0  0  0  0  0  0  0  0  0  0
    7.4077   -8.2489    0.0000 C   0  0  0  0  0  0  0  0  0  0  0  0
    8.1222   -7.8364    0.0000 C   0  0  0  0  0  0  0  0  0  0  0  0
    8.1222   -7.0114    0.0000 C   0  0  0  0  0  0  0  0  0  0  0  0
 10  1  1  6  0  0  0
 12  2  1  6  0  0  0
 13  3  1  6  0  0  0
 19  4  1  1  0  0  0
 11  5  1  1  0  0  0
 18  6  1  1  0  0  0
 26  7  1  0  0  0  0
 36  8  1  0  0  0  0
 41  9  1  0  0  0  0
 10 14  1  0  0  0  0
 11 10  1  0  0  0  0
 12 11  1  0  0  0  0
 13 12  1  0  0  0  0
 15 13  1  0  0  0  0
 15 14  1  0  0  0  0
 15 16  1  1  0  0  0
 20 16  1  6  0  0  0
 17 21  1  0  0  0  0
 18 17  1  0  0  0  0
 19 18  1  0  0  0  0
 20 19  1  0  0  0  0
 22 20  1  0  0  0  0
 22 21  1  0  0  0  0
 22 35  1  1  0  0  0
 23 28  1  0  0  0  0
 32 24  2  0  0  0  0
 25 30  2  0  0  0  0
 26 25  1  0  0  0  0
 27 26  2  0  0  0  0
 28 27  1  0  0  0  0
 31 28  2  0  0  0  0
 29 33  1  0  0  0  0
 30 29  1  0  0  0  0
 31 30  1  0  0  0  0
 32 31  1  0  0  0  0
 34 32  1  0  0  0  0
 33 38  1  0  0  0  0
 34 33  2  0  0  0  0
 35 34  1  0  0  0  0
 36 41  1  0  0  0  0
 37 36  2  0  0  0  0
 38 37  1  0  0  0  0
 39 38  2  0  0  0  0
 40 39  1  0  0  0  0
 41 40  2  0  0  0  0
M  END
>  <cdx:fragmentId>
5

$$$$
