991439.cdx
  Mrv1902 05222410252D          

 22 23  0  0  0  0            999 V2000
    7.5327   -5.9542    0.0000 C   0  0  0  0  0  0  0  0  0  0  0  0
    6.8164   -6.3635    0.0000 C   0  0  0  0  0  0  0  0  0  0  0  0
    6.8128   -7.1885    0.0000 C   0  0  0  0  0  0  0  0  0  0  0  0
    7.5254   -7.6042    0.0000 C   0  0  0  0  0  0  0  0  0  0  0  0
    8.2417   -7.1949    0.0000 C   0  0  0  0  0  0  0  0  0  0  0  0
    8.2453   -6.3699    0.0000 C   0  0  0  0  0  0  0  0  0  0  0  0
    6.1038   -5.9479    0.0000 C   0  0  0  0  0  0  0  0  0  0  0  0
    8.9543   -7.6105    0.0000 C   0  0  0  0  0  0  0  0  0  0  0  0
    9.6706   -7.2012    0.0000 C   0  0  0  0  0  0  0  0  0  0  0  0
    8.9507   -8.4355    0.0000 C   0  0  0  0  0  0  0  0  0  0  0  0
    7.5218   -8.4292    0.0000 O   0  0  0  0  0  0  0  0  0  0  0  0
    6.8055   -8.8385    0.0000 C   0  0  2  0  0  0  0  0  0  0  0  0
    6.0928   -8.4229    0.0000 O   0  0  0  0  0  0  0  0  0  0  0  0
    5.3766   -8.8322    0.0000 C   0  0  1  0  0  0  0  0  0  0  0  0
    5.3729   -9.6572    0.0000 C   0  0  2  0  0  0  0  0  0  0  0  0
    6.0855  -10.0729    0.0000 C   0  0  1  0  0  0  0  0  0  0  0  0
    6.8018   -9.6635    0.0000 C   0  0  1  0  0  0  0  0  0  0  0  0
    4.6639   -8.4166    0.0000 C   0  0  0  0  0  0  0  0  0  0  0  0
    6.0819  -10.8978    0.0000 O   0  0  0  0  0  0  0  0  0  0  0  0
    4.6566  -10.0665    0.0000 O   0  0  0  0  0  0  0  0  0  0  0  0
    7.5145  -10.0792    0.0000 O   0  0  0  0  0  0  0  0  0  0  0  0
    3.9476   -8.8259    0.0000 O   0  0  0  0  0  0  0  0  0  0  0  0
  1  2  2  0  0  0  0
  2  3  1  0  0  0  0
  3  4  2  0  0  0  0
  4  5  1  0  0  0  0
  5  6  2  0  0  0  0
  6  1  1  0  0  0  0
  2  7  1  0  0  0  0
  5  8  1  0  0  0  0
  8  9  1  0  0  0  0
  8 10  1  0  0  0  0
  4 11  1  0  0  0  0
 12 11  1  1  0  0  0
 12 13  1  0  0  0  0
 13 14  1  0  0  0  0
 14 15  1  0  0  0  0
 15 16  1  0  0  0  0
 16 17  1  0  0  0  0
 17 12  1  0  0  0  0
 14 18  1  1  0  0  0
 16 19  1  1  0  0  0
 15 20  1  6  0  0  0
 17 21  1  6  0  0  0
 18 22  1  0  0  0  0
M  END
>  <cdx:fragmentId>
5

$$$$
