991453.cdx
  Mrv1902 05222410192D          

 10 10  0  0  0  0            999 V2000
    6.3638   -6.1864    0.0000 C   0  0  0  0  0  0  0  0  0  0  0  0
    6.3638   -7.0114    0.0000 C   0  0  0  0  0  0  0  0  0  0  0  0
    7.1888   -7.0114    0.0000 C   0  0  2  0  0  0  0  0  0  0  0  0
    7.1888   -6.1864    0.0000 C   0  0  2  0  0  0  0  0  0  0  0  0
    7.7721   -5.6030    0.0000 C   0  0  0  0  0  0  0  0  0  0  0  0
    7.7721   -7.5948    0.0000 C   0  0  0  0  0  0  0  0  0  0  0  0
    8.5690   -5.8166    0.0000 C   0  0  0  0  0  0  0  0  0  0  0  0
    7.5586   -4.8061    0.0000 C   0  0  0  0  0  0  0  0  0  0  0  0
    7.5586   -8.3917    0.0000 C   0  0  0  0  0  0  0  0  0  0  0  0
    8.5690   -7.3812    0.0000 C   0  0  0  0  0  0  0  0  0  0  0  0
  1  2  1  0  0  0  0
  2  3  1  0  0  0  0
  3  4  1  0  0  0  0
  4  1  1  0  0  0  0
  4  5  1  1  0  0  0
  3  6  1  6  0  0  0
  5  7  2  0  0  0  0
  5  8  1  0  0  0  0
  6  9  1  0  0  0  0
  6 10  2  0  0  0  0
M  END
>  <cdx:fragmentId>
5

$$$$
