91497.cdx
  Mrv1902 05222410182D          

 77 85  0  0  0  0            999 V2000
    9.5190   -7.9601    0.0000 C   0  0  0  0  0  0  0  0  0  0  0  0
    9.5190   -8.4551    0.0000 C   0  0  1  0  0  0  0  0  0  0  0  0
    9.9477   -8.7026    0.0000 C   0  0  0  0  0  0  0  0  0  0  0  0
   10.3763   -8.4551    0.0000 C   0  0  0  0  0  0  0  0  0  0  0  0
   10.3763   -7.9601    0.0000 C   0  0  2  0  0  0  0  0  0  0  0  0
    9.9477   -7.7126    0.0000 C   0  0  0  0  0  0  0  0  0  0  0  0
   10.8050   -8.7026    0.0000 C   0  0  0  0  0  0  0  0  0  0  0  0
   11.2337   -8.4551    0.0000 C   0  0  0  0  0  0  0  0  0  0  0  0
   11.2337   -7.9601    0.0000 C   0  0  2  0  0  0  0  0  0  0  0  0
   10.8050   -7.7126    0.0000 C   0  0  0  0  0  0  0  0  0  0  0  0
   11.6624   -7.7126    0.0000 C   0  0  2  0  0  0  0  0  0  0  0  0
   11.6624   -7.2176    0.0000 C   0  0  2  0  0  0  0  0  0  0  0  0
   11.2337   -6.9701    0.0000 C   0  0  1  0  0  0  0  0  0  0  0  0
   10.8050   -7.2176    0.0000 C   0  0  0  0  0  0  0  0  0  0  0  0
   12.0911   -7.9601    0.0000 C   0  0  0  0  0  0  0  0  0  0  0  0
   12.5198   -7.7126    0.0000 C   0  0  0  0  0  0  0  0  0  0  0  0
   12.5198   -7.2176    0.0000 C   0  0  1  0  0  0  0  0  0  0  0  0
   11.2337   -6.4751    0.0000 O   0  0  0  0  0  0  0  0  0  0  0  0
   10.8050   -6.2276    0.0000 C   0  0  0  0  0  0  0  0  0  0  0  0
   10.3763   -6.4751    0.0000 C   0  0  0  0  0  0  0  0  0  0  0  0
   10.3763   -6.9701    0.0000 C   0  0  0  0  0  0  0  0  0  0  0  0
    9.9477   -6.2276    0.0000 C   0  0  0  0  0  0  0  0  0  0  0  0
    9.5190   -6.4751    0.0000 C   0  0  0  0  0  0  0  0  0  0  0  0
    9.5190   -6.9701    0.0000 C   0  0  0  0  0  0  0  0  0  0  0  0
    9.9477   -7.2176    0.0000 C   0  0  0  0  0  0  0  0  0  0  0  0
    2.2250  -12.6599    0.0000 O   0  0  0  0  0  0  0  0  0  0  0  0
    2.6537  -12.4124    0.0000 C   0  0  1  0  0  0  0  0  0  0  0  0
    3.0824  -12.6599    0.0000 C   0  0  1  0  0  0  0  0  0  0  0  0
    3.5111  -12.4124    0.0000 C   0  0  2  0  0  0  0  0  0  0  0  0
    3.5111  -11.9174    0.0000 C   0  0  1  0  0  0  0  0  0  0  0  0
    3.0824  -11.6699    0.0000 O   0  0  0  0  0  0  0  0  0  0  0  0
    2.6537  -11.9174    0.0000 C   0  0  2  0  0  0  0  0  0  0  0  0
    3.9398  -11.6699    0.0000 O   0  0  0  0  0  0  0  0  0  0  0  0
    4.3684  -11.4224    0.0000 C   0  0  1  0  0  0  0  0  0  0  0  0
    4.7971  -11.6699    0.0000 C   0  0  2  0  0  0  0  0  0  0  0  0
    5.2258  -11.4224    0.0000 C   0  0  2  0  0  0  0  0  0  0  0  0
    5.2258  -10.9274    0.0000 C   0  0  1  0  0  0  0  0  0  0  0  0
    4.7971  -10.6799    0.0000 O   0  0  0  0  0  0  0  0  0  0  0  0
    4.3684  -10.9274    0.0000 C   0  0  2  0  0  0  0  0  0  0  0  0
    5.6545  -10.6799    0.0000 O   0  0  0  0  0  0  0  0  0  0  0  0
    6.0832  -10.4324    0.0000 C   0  0  1  0  0  0  0  0  0  0  0  0
    6.5119  -10.6799    0.0000 C   0  0  1  0  0  0  0  0  0  0  0  0
    6.9405  -10.4324    0.0000 C   0  0  0  0  0  0  0  0  0  0  0  0
    6.9405   -9.9374    0.0000 C   0  0  1  0  0  0  0  0  0  0  0  0
    6.5119   -9.6899    0.0000 O   0  0  0  0  0  0  0  0  0  0  0  0
    6.0832   -9.9374    0.0000 C   0  0  2  0  0  0  0  0  0  0  0  0
    7.3692   -9.6899    0.0000 O   0  0  0  0  0  0  0  0  0  0  0  0
    7.7979   -9.4424    0.0000 C   0  0  1  0  0  0  0  0  0  0  0  0
    8.2266   -9.6899    0.0000 C   0  0  2  0  0  0  0  0  0  0  0  0
    8.6553   -9.4424    0.0000 C   0  0  0  0  0  0  0  0  0  0  0  0
    8.6553   -8.9474    0.0000 C   0  0  1  0  0  0  0  0  0  0  0  0
    8.2266   -8.6999    0.0000 O   0  0  0  0  0  0  0  0  0  0  0  0
    7.7979   -8.9474    0.0000 C   0  0  2  0  0  0  0  0  0  0  0  0
    3.0824  -13.1549    0.0000 O   0  0  0  0  0  0  0  0  0  0  0  0
    2.2250  -11.6699    0.0000 C   0  0  0  0  0  0  0  0  0  0  0  0
    3.9398  -10.6799    0.0000 C   0  0  0  0  0  0  0  0  0  0  0  0
    6.5119  -11.1749    0.0000 O   0  0  0  0  0  0  0  0  0  0  0  0
    5.6545   -9.6899    0.0000 C   0  0  0  0  0  0  0  0  0  0  0  0
    7.3692   -8.6999    0.0000 C   0  0  0  0  0  0  0  0  0  0  0  0
    3.9398  -12.6599    0.0000 O   0  0  0  0  0  0  0  0  0  0  0  0
    4.7971  -12.1649    0.0000 O   0  0  0  0  0  0  0  0  0  0  0  0
    5.6545  -11.6699    0.0000 O   0  0  0  0  0  0  0  0  0  0  0  0
    8.2266  -10.1849    0.0000 O   0  0  0  0  0  0  0  0  0  0  0  0
    1.7963  -11.9174    0.0000 O   0  0  0  0  0  0  0  0  0  0  0  0
    5.2258  -12.4124    0.0000 C   0  0  0  0  0  0  0  0  0  0  0  0
    6.9405  -11.4224    0.0000 C   0  0  0  0  0  0  0  0  0  0  0  0
    8.6553  -10.4324    0.0000 C   0  0  0  0  0  0  0  0  0  0  0  0
   10.8050   -5.7326    0.0000 O   0  0  0  0  0  0  0  0  0  0  0  0
   12.5198   -6.7226    0.0000 C   0  0  0  0  0  0  0  0  0  0  0  0
   12.0911   -6.4751    0.0000 C   0  0  0  0  0  0  0  0  0  0  0  0
   12.9484   -6.4751    0.0000 O   0  0  0  0  0  0  0  0  0  0  0  0
   11.6624   -6.7226    0.0000 C   0  0  0  0  0  0  0  0  0  0  0  0
   12.9484   -6.9701    0.0000 O   0  0  0  0  0  0  0  0  0  0  0  0
   11.2337   -7.4651    0.0000 O   0  0  0  0  0  0  0  0  0  0  0  0
   11.6624   -8.2076    0.0000 O   0  0  0  0  0  0  0  0  0  0  0  0
   10.3763   -7.4651    0.0000 C   0  0  0  0  0  0  0  0  0  0  0  0
    9.0903   -8.7026    0.0000 O   0  0  0  0  0  0  0  0  0  0  0  0
  1  2  1  0  0  0  0
  2  3  1  0  0  0  0
  3  4  1  0  0  0  0
  4  5  1  0  0  0  0
  5  6  1  0  0  0  0
  6  1  1  0  0  0  0
  4  7  1  0  0  0  0
  7  8  1  0  0  0  0
  8  9  1  0  0  0  0
  9 10  1  0  0  0  0
 10  5  1  0  0  0  0
  9 11  1  0  0  0  0
 11 12  1  0  0  0  0
 12 13  1  0  0  0  0
 13 14  1  0  0  0  0
 14 10  1  0  0  0  0
 11 15  1  0  0  0  0
 15 16  1  0  0  0  0
 16 17  1  0  0  0  0
 13 18  1  1  0  0  0
 18 19  1  0  0  0  0
 19 20  1  0  0  0  0
 20 21  1  0  0  0  0
 20 22  2  0  0  0  0
 22 23  1  0  0  0  0
 23 24  2  0  0  0  0
 24 25  1  0  0  0  0
 25 21  2  0  0  0  0
 27 26  1  6  0  0  0
 27 28  1  0  0  0  0
 28 29  1  0  0  0  0
 29 30  1  0  0  0  0
 30 31  1  0  0  0  0
 31 32  1  0  0  0  0
 32 27  1  0  0  0  0
 30 33  1  1  0  0  0
 34 33  1  6  0  0  0
 34 35  1  0  0  0  0
 35 36  1  0  0  0  0
 36 37  1  0  0  0  0
 37 38  1  0  0  0  0
 38 39  1  0  0  0  0
 39 34  1  0  0  0  0
 37 40  1  1  0  0  0
 41 40  1  6  0  0  0
 41 42  1  0  0  0  0
 42 43  1  0  0  0  0
 43 44  1  0  0  0  0
 44 45  1  0  0  0  0
 45 46  1  0  0  0  0
 46 41  1  0  0  0  0
 44 47  1  1  0  0  0
 48 47  1  6  0  0  0
 48 49  1  0  0  0  0
 49 50  1  0  0  0  0
 50 51  1  0  0  0  0
 51 52  1  0  0  0  0
 52 53  1  0  0  0  0
 53 48  1  0  0  0  0
 28 54  1  1  0  0  0
 32 55  1  1  0  0  0
 39 56  1  1  0  0  0
 42 57  1  1  0  0  0
 46 58  1  1  0  0  0
 53 59  1  1  0  0  0
 29 60  1  6  0  0  0
 35 61  1  6  0  0  0
 36 62  1  6  0  0  0
 49 63  1  6  0  0  0
 55 64  1  0  0  0  0
 61 65  1  0  0  0  0
 57 66  1  0  0  0  0
 63 67  1  0  0  0  0
 19 68  2  0  0  0  0
 12 17  1  0  0  0  0
 17 69  1  0  0  0  0
 69 70  1  0  0  0  0
 69 71  1  0  0  0  0
 12 72  1  1  0  0  0
 17 73  1  1  0  0  0
  9 74  1  1  0  0  0
 11 75  1  1  0  0  0
  5 76  1  1  0  0  0
  2 77  1  1  0  0  0
 51 77  1  1  0  0  0
M  END
>  <cdx:fragmentId>
88

$$$$
