991456.cdx
  Mrv1902 05222410192D          

 11 11  0  0  0  0            999 V2000
    6.3363   -8.7851    0.0000 C   0  0  1  0  0  0  0  0  0  0  0  0
    7.1613   -8.7851    0.0000 C   0  0  0  0  0  0  0  0  0  0  0  0
    7.5738   -9.4996    0.0000 C   0  0  0  0  0  0  0  0  0  0  0  0
    8.3988   -9.4996    0.0000 C   0  0  0  0  0  0  0  0  0  0  0  0
    8.8113  -10.2141    0.0000 C   0  0  0  0  0  0  0  0  0  0  0  0
    8.8113   -8.7851    0.0000 C   0  0  0  0  0  0  0  0  0  0  0  0
    5.9238   -9.4996    0.0000 C   0  0  2  0  0  0  0  0  0  0  0  0
    5.0988   -9.4996    0.0000 C   0  0  0  0  0  0  0  0  0  0  0  0
    6.3363  -10.2141    0.0000 C   0  0  0  0  0  0  0  0  0  0  0  0
    4.6863  -10.2141    0.0000 C   0  0  0  0  0  0  0  0  0  0  0  0
    5.5113   -8.7851    0.0000 O   0  0  0  0  0  0  0  0  0  0  0  0
  1  2  1  1  0  0  0
  2  3  1  0  0  0  0
  3  4  2  0  0  0  0
  4  5  1  0  0  0  0
  4  6  1  0  0  0  0
  1  7  1  0  0  0  0
  7  8  1  1  0  0  0
  7  9  1  0  0  0  0
  8 10  2  0  0  0  0
  1 11  1  0  0  0  0
 11  7  1  0  0  0  0
M  END
>  <cdx:fragmentId>
3

$$$$
