99142.cdx
  Mrv1902 05222410272D          

 34 37  0  0  0  0            999 V2000
    4.2589   -5.6856    0.0000 C   0  0  0  0  0  0  0  0  0  0  0  0
    4.2589   -6.5106    0.0000 C   0  0  0  0  0  0  0  0  0  0  0  0
    4.9734   -6.9231    0.0000 C   0  0  0  0  0  0  0  0  0  0  0  0
    5.6878   -6.5106    0.0000 C   0  0  0  0  0  0  0  0  0  0  0  0
    5.6878   -5.6856    0.0000 C   0  0  0  0  0  0  0  0  0  0  0  0
    4.9734   -5.2731    0.0000 C   0  0  0  0  0  0  0  0  0  0  0  0
    6.4023   -6.9231    0.0000 C   0  0  0  0  0  0  0  0  0  0  0  0
    7.1168   -6.5106    0.0000 C   0  0  1  0  0  0  0  0  0  0  0  0
    7.1168   -5.6856    0.0000 C   0  0  2  0  0  0  0  0  0  0  0  0
    6.4023   -5.2731    0.0000 O   0  0  0  0  0  0  0  0  0  0  0  0
    7.8313   -5.2731    0.0000 C   0  0  0  0  0  0  0  0  0  0  0  0
    8.5457   -5.6856    0.0000 C   0  0  0  0  0  0  0  0  0  0  0  0
    9.2602   -5.2731    0.0000 C   0  0  0  0  0  0  0  0  0  0  0  0
    9.2602   -4.4481    0.0000 C   0  0  0  0  0  0  0  0  0  0  0  0
    8.5457   -4.0356    0.0000 C   0  0  0  0  0  0  0  0  0  0  0  0
    7.8313   -4.4481    0.0000 C   0  0  0  0  0  0  0  0  0  0  0  0
    3.5444   -5.2731    0.0000 O   0  0  0  0  0  0  0  0  0  0  0  0
    4.9734   -7.7481    0.0000 O   0  0  0  0  0  0  0  0  0  0  0  0
    8.5457   -3.2106    0.0000 O   0  0  0  0  0  0  0  0  0  0  0  0
    9.9747   -4.0356    0.0000 O   0  0  0  0  0  0  0  0  0  0  0  0
    7.8313   -6.9231    0.0000 O   0  0  0  0  0  0  0  0  0  0  0  0
    4.9734   -4.4481    0.0000 C   0  0  0  0  0  0  0  0  0  0  0  0
    4.2589   -4.0356    0.0000 C   0  0  0  0  0  0  0  0  0  0  0  0
    5.6878   -4.0356    0.0000 C   0  0  0  0  0  0  0  0  0  0  0  0
    4.2589   -3.2106    0.0000 C   0  0  0  0  0  0  0  0  0  0  0  0
    3.5444   -2.7981    0.0000 O   0  0  0  0  0  0  0  0  0  0  0  0
    4.9734   -2.7981    0.0000 O   0  0  0  0  0  0  0  0  0  0  0  0
    6.4023   -4.4481    0.0000 C   0  0  0  0  0  0  0  0  0  0  0  0
    7.1168   -4.0356    0.0000 C   0  0  0  0  0  0  0  0  0  0  0  0
    7.1168   -3.2106    0.0000 C   0  0  0  0  0  0  0  0  0  0  0  0
    6.4023   -2.7981    0.0000 C   0  0  0  0  0  0  0  0  0  0  0  0
    5.6878   -3.2106    0.0000 C   0  0  0  0  0  0  0  0  0  0  0  0
    6.4023   -1.9731    0.0000 O   0  0  0  0  0  0  0  0  0  0  0  0
    7.8313   -2.7981    0.0000 O   0  0  0  0  0  0  0  0  0  0  0  0
  1  2  2  0  0  0  0
  2  3  1  0  0  0  0
  3  4  2  0  0  0  0
  4  5  1  0  0  0  0
  5  6  2  0  0  0  0
  6  1  1  0  0  0  0
  4  7  1  0  0  0  0
  7  8  1  0  0  0  0
  8  9  1  0  0  0  0
  9 10  1  0  0  0  0
 10  5  1  0  0  0  0
 11 12  2  0  0  0  0
 12 13  1  0  0  0  0
 13 14  2  0  0  0  0
 14 15  1  0  0  0  0
 15 16  2  0  0  0  0
 16 11  1  0  0  0  0
  1 17  1  0  0  0  0
  3 18  1  0  0  0  0
 15 19  1  0  0  0  0
 14 20  1  0  0  0  0
  9 11  1  6  0  0  0
  8 21  1  1  0  0  0
  6 22  1  0  0  0  0
 22 23  1  0  0  0  0
 22 24  1  0  0  0  0
 23 25  1  0  0  0  0
 25 26  2  0  0  0  0
 25 27  1  0  0  0  0
 24 28  2  0  0  0  0
 28 29  1  0  0  0  0
 29 30  2  0  0  0  0
 30 31  1  0  0  0  0
 31 32  2  0  0  0  0
 32 24  1  0  0  0  0
 31 33  1  0  0  0  0
 30 34  1  0  0  0  0
M  END
>  <cdx:fragmentId>
93

$$$$
