991440.cdx
  Mrv1902 05222410182D          

 17 17  0  0  0  0            999 V2000
    7.7806   -7.5751    0.0000 C   0  0  0  0  0  0  0  0  0  0  0  0
    7.7806   -8.4001    0.0000 C   0  0  0  0  0  0  0  0  0  0  0  0
    8.4950   -8.8126    0.0000 C   0  0  0  0  0  0  0  0  0  0  0  0
    9.2095   -8.4001    0.0000 C   0  0  0  0  0  0  0  0  0  0  0  0
    9.2095   -7.5751    0.0000 C   0  0  0  0  0  0  0  0  0  0  0  0
    8.4950   -7.1626    0.0000 C   0  0  0  0  0  0  0  0  0  0  0  0
    8.4950   -6.3376    0.0000 C   0  0  0  0  0  0  0  0  0  0  0  0
    8.4950   -9.6376    0.0000 C   0  0  0  0  0  0  0  0  0  0  0  0
    9.2095  -10.0501    0.0000 C   0  0  0  0  0  0  0  0  0  0  0  0
    7.7806  -10.0501    0.0000 C   0  0  0  0  0  0  0  0  0  0  0  0
    7.0661   -8.8126    0.0000 O   0  0  0  0  0  0  0  0  0  0  0  0
    6.3516   -8.4001    0.0000 C   0  0  0  0  0  0  0  0  0  0  0  0
    5.6371   -8.8126    0.0000 C   0  0  0  0  0  0  0  0  0  0  0  0
    6.3516   -7.5751    0.0000 O   0  0  0  0  0  0  0  0  0  0  0  0
    4.9227   -8.4001    0.0000 C   0  0  0  0  0  0  0  0  0  0  0  0
    5.6371   -9.6376    0.0000 C   0  0  0  0  0  0  0  0  0  0  0  0
    4.9227   -7.5751    0.0000 C   0  0  0  0  0  0  0  0  0  0  0  0
  1  2  2  0  0  0  0
  2  3  1  0  0  0  0
  3  4  2  0  0  0  0
  4  5  1  0  0  0  0
  5  6  2  0  0  0  0
  6  1  1  0  0  0  0
  6  7  1  0  0  0  0
  3  8  1  0  0  0  0
  8  9  1  0  0  0  0
  8 10  1  0  0  0  0
  2 11  1  0  0  0  0
 11 12  1  0  0  0  0
 12 13  1  0  0  0  0
 12 14  2  0  0  0  0
 13 15  2  0  0  0  0
 13 16  1  0  0  0  0
 15 17  1  0  0  0  0
M  END
>  <cdx:fragmentId>
5

$$$$
