99149.cdx
  Mrv1902 05222410202D          

 33 35  0  0  0  0            999 V2000
    9.5347   -9.3637    0.0000 O   0  0  0  0  0  0  0  0  0  0  0  0
    8.1058  -10.1888    0.0000 O   0  0  0  0  0  0  0  0  0  0  0  0
    9.5347   -7.7138    0.0000 O   0  0  0  0  0  0  0  0  0  0  0  0
    3.8190  -10.1888    0.0000 O   0  0  0  0  0  0  0  0  0  0  0  0
    3.8190   -6.8888    0.0000 O   0  0  0  0  0  0  0  0  0  0  0  0
    5.2479  -10.1888    0.0000 O   0  0  0  0  0  0  0  0  0  0  0  0
    5.2479   -4.4138    0.0000 O   0  0  0  0  0  0  0  0  0  0  0  0
    4.5334   -5.6512    0.0000 O   0  0  0  0  0  0  0  0  0  0  0  0
    5.2479   -5.2387    0.0000 C   0  0  0  0  0  0  0  0  0  0  0  0
    7.3913   -5.6512    0.0000 C   0  0  0  0  0  0  0  0  0  0  0  0
    6.6769   -5.2387    0.0000 C   0  0  0  0  0  0  0  0  0  0  0  0
    5.9624   -5.6512    0.0000 C   0  0  0  0  0  0  0  0  0  0  0  0
    5.9624   -6.4763    0.0000 C   0  0  0  0  0  0  0  0  0  0  0  0
    8.1058   -6.8888    0.0000 O   0  0  0  0  0  0  0  0  0  0  0  0
    7.3913   -6.4763    0.0000 C   0  0  0  0  0  0  0  0  0  0  0  0
    6.6769   -6.8888    0.0000 C   0  0  0  0  0  0  0  0  0  0  0  0
    3.8190   -7.7138    0.0000 C   0  0  0  0  0  0  0  0  0  0  0  0
    3.1045   -8.1263    0.0000 C   0  0  0  0  0  0  0  0  0  0  0  0
    3.1045   -8.9513    0.0000 C   0  0  0  0  0  0  0  0  0  0  0  0
    3.8190   -9.3637    0.0000 C   0  0  0  0  0  0  0  0  0  0  0  0
    4.5334   -8.1263    0.0000 C   0  0  0  0  0  0  0  0  0  0  0  0
    4.5334   -8.9513    0.0000 C   0  0  0  0  0  0  0  0  0  0  0  0
    5.2479   -9.3637    0.0000 C   0  0  0  0  0  0  0  0  0  0  0  0
    6.6769   -7.7138    0.0000 O   0  0  0  0  0  0  0  0  0  0  0  0
    5.9624   -8.1263    0.0000 C   0  0  0  0  0  0  0  0  0  0  0  0
    5.9624   -8.9513    0.0000 O   0  0  0  0  0  0  0  0  0  0  0  0
    6.6769   -9.3637    0.0000 C   0  0  0  0  0  0  0  0  0  0  0  0
    8.1058   -7.7138    0.0000 C   0  0  2  0  0  0  0  0  0  0  0  0
    7.3913   -8.1263    0.0000 O   0  0  0  0  0  0  0  0  0  0  0  0
    7.3913   -8.9513    0.0000 C   0  0  1  0  0  0  0  0  0  0  0  0
    8.1058   -9.3637    0.0000 C   0  0  2  0  0  0  0  0  0  0  0  0
    8.8203   -8.9513    0.0000 C   0  0  1  0  0  0  0  0  0  0  0  0
    8.8203   -8.1263    0.0000 C   0  0  1  0  0  0  0  0  0  0  0  0
 32  1  1  1  0  0  0
 31  2  1  6  0  0  0
 33  3  1  6  0  0  0
 20  4  1  0  0  0  0
 17  5  1  0  0  0  0
 23  6  2  0  0  0  0
  9  7  2  0  0  0  0
  9  8  1  0  0  0  0
 12  9  1  0  0  0  0
 10 15  1  0  0  0  0
 11 10  2  0  0  0  0
 12 11  1  0  0  0  0
 13 12  2  0  0  0  0
 16 13  1  0  0  0  0
 28 14  1  1  0  0  0
 15 14  1  0  0  0  0
 16 15  2  0  0  0  0
 24 16  1  0  0  0  0
 17 21  1  0  0  0  0
 18 17  2  0  0  0  0
 19 18  1  0  0  0  0
 20 19  2  0  0  0  0
 22 20  1  0  0  0  0
 22 21  2  0  0  0  0
 23 22  1  0  0  0  0
 26 23  1  0  0  0  0
 25 24  1  0  0  0  0
 27 26  1  0  0  0  0
 30 27  1  1  0  0  0
 28 33  1  0  0  0  0
 29 28  1  0  0  0  0
 30 29  1  0  0  0  0
 31 30  1  0  0  0  0
 32 31  1  0  0  0  0
 33 32  1  0  0  0  0
M  END
>  <cdx:fragmentId>
5

$$$$
