91496.cdx
  Mrv1902 05222410182D          

 88 97  0  0  0  0            999 V2000
   10.0140   -6.8464    0.0000 C   0  0  0  0  0  0  0  0  0  0  0  0
   10.0140   -7.3414    0.0000 C   0  0  1  0  0  0  0  0  0  0  0  0
   10.4427   -7.5889    0.0000 C   0  0  0  0  0  0  0  0  0  0  0  0
   10.8713   -7.3414    0.0000 C   0  0  0  0  0  0  0  0  0  0  0  0
   10.8713   -6.8464    0.0000 C   0  0  2  0  0  0  0  0  0  0  0  0
   10.4427   -6.5989    0.0000 C   0  0  0  0  0  0  0  0  0  0  0  0
   11.3000   -7.5889    0.0000 C   0  0  0  0  0  0  0  0  0  0  0  0
   11.7287   -7.3414    0.0000 C   0  0  0  0  0  0  0  0  0  0  0  0
   11.7287   -6.8464    0.0000 C   0  0  2  0  0  0  0  0  0  0  0  0
   11.3000   -6.5989    0.0000 C   0  0  0  0  0  0  0  0  0  0  0  0
   12.1574   -6.5989    0.0000 C   0  0  2  0  0  0  0  0  0  0  0  0
   12.1574   -6.1039    0.0000 C   0  0  2  0  0  0  0  0  0  0  0  0
   11.7287   -5.8564    0.0000 C   0  0  1  0  0  0  0  0  0  0  0  0
   11.3000   -6.1039    0.0000 C   0  0  0  0  0  0  0  0  0  0  0  0
   12.5861   -6.8464    0.0000 C   0  0  0  0  0  0  0  0  0  0  0  0
   13.0148   -6.5989    0.0000 C   0  0  0  0  0  0  0  0  0  0  0  0
   13.0148   -6.1039    0.0000 C   0  0  1  0  0  0  0  0  0  0  0  0
   11.7287   -5.3614    0.0000 O   0  0  0  0  0  0  0  0  0  0  0  0
   11.3000   -5.1139    0.0000 C   0  0  0  0  0  0  0  0  0  0  0  0
   10.8713   -5.3614    0.0000 C   0  0  0  0  0  0  0  0  0  0  0  0
   10.8713   -5.8564    0.0000 C   0  0  0  0  0  0  0  0  0  0  0  0
   10.4427   -5.1139    0.0000 C   0  0  0  0  0  0  0  0  0  0  0  0
   10.0140   -5.3614    0.0000 C   0  0  0  0  0  0  0  0  0  0  0  0
   10.0140   -5.8564    0.0000 C   0  0  0  0  0  0  0  0  0  0  0  0
   10.4427   -6.1039    0.0000 C   0  0  0  0  0  0  0  0  0  0  0  0
    1.4340  -11.7936    0.0000 C   0  0  2  0  0  0  0  0  0  0  0  0
    1.4340  -12.2886    0.0000 C   0  0  2  0  0  0  0  0  0  0  0  0
    1.8627  -12.5361    0.0000 C   0  0  1  0  0  0  0  0  0  0  0  0
    2.2913  -12.2886    0.0000 C   0  0  2  0  0  0  0  0  0  0  0  0
    2.2913  -11.7936    0.0000 C   0  0  1  0  0  0  0  0  0  0  0  0
    1.8627  -11.5461    0.0000 O   0  0  0  0  0  0  0  0  0  0  0  0
    1.0053  -11.5461    0.0000 C   0  0  0  0  0  0  0  0  0  0  0  0
    1.8627  -13.0311    0.0000 O   0  0  0  0  0  0  0  0  0  0  0  0
    2.7200  -11.5461    0.0000 O   0  0  0  0  0  0  0  0  0  0  0  0
    3.1487  -11.2986    0.0000 C   0  0  1  0  0  0  0  0  0  0  0  0
    3.5774  -11.5461    0.0000 C   0  0  1  0  0  0  0  0  0  0  0  0
    4.0061  -11.2986    0.0000 C   0  0  2  0  0  0  0  0  0  0  0  0
    4.0061  -10.8036    0.0000 C   0  0  1  0  0  0  0  0  0  0  0  0
    3.5774  -10.5561    0.0000 O   0  0  0  0  0  0  0  0  0  0  0  0
    3.1487  -10.8036    0.0000 C   0  0  2  0  0  0  0  0  0  0  0  0
    4.4348  -10.5561    0.0000 O   0  0  0  0  0  0  0  0  0  0  0  0
    4.8634  -10.3086    0.0000 C   0  0  1  0  0  0  0  0  0  0  0  0
    5.2921  -10.5561    0.0000 C   0  0  2  0  0  0  0  0  0  0  0  0
    5.7208  -10.3086    0.0000 C   0  0  2  0  0  0  0  0  0  0  0  0
    5.7208   -9.8136    0.0000 C   0  0  1  0  0  0  0  0  0  0  0  0
    5.2921   -9.5661    0.0000 O   0  0  0  0  0  0  0  0  0  0  0  0
    4.8634   -9.8136    0.0000 C   0  0  2  0  0  0  0  0  0  0  0  0
    6.1495   -9.5661    0.0000 O   0  0  0  0  0  0  0  0  0  0  0  0
    6.5782   -9.3186    0.0000 C   0  0  1  0  0  0  0  0  0  0  0  0
    7.0069   -9.5661    0.0000 C   0  0  1  0  0  0  0  0  0  0  0  0
    7.4355   -9.3186    0.0000 C   0  0  0  0  0  0  0  0  0  0  0  0
    7.4355   -8.8236    0.0000 C   0  0  1  0  0  0  0  0  0  0  0  0
    7.0069   -8.5761    0.0000 O   0  0  0  0  0  0  0  0  0  0  0  0
    6.5782   -8.8236    0.0000 C   0  0  2  0  0  0  0  0  0  0  0  0
    7.8642   -8.5761    0.0000 O   0  0  0  0  0  0  0  0  0  0  0  0
    8.2929   -8.3286    0.0000 C   0  0  1  0  0  0  0  0  0  0  0  0
    8.7216   -8.5761    0.0000 C   0  0  2  0  0  0  0  0  0  0  0  0
    9.1503   -8.3286    0.0000 C   0  0  0  0  0  0  0  0  0  0  0  0
    9.1503   -7.8336    0.0000 C   0  0  1  0  0  0  0  0  0  0  0  0
    8.7216   -7.5861    0.0000 O   0  0  0  0  0  0  0  0  0  0  0  0
    8.2929   -7.8336    0.0000 C   0  0  2  0  0  0  0  0  0  0  0  0
    3.5774  -12.0411    0.0000 O   0  0  0  0  0  0  0  0  0  0  0  0
    2.7200  -10.5561    0.0000 C   0  0  0  0  0  0  0  0  0  0  0  0
    4.4348   -9.5661    0.0000 C   0  0  0  0  0  0  0  0  0  0  0  0
    7.0069  -10.0611    0.0000 O   0  0  0  0  0  0  0  0  0  0  0  0
    6.1495   -8.5761    0.0000 C   0  0  0  0  0  0  0  0  0  0  0  0
    7.8642   -7.5861    0.0000 C   0  0  0  0  0  0  0  0  0  0  0  0
    1.0053  -12.5361    0.0000 O   0  0  0  0  0  0  0  0  0  0  0  0
    2.7200  -12.5361    0.0000 O   0  0  0  0  0  0  0  0  0  0  0  0
    4.4348  -11.5461    0.0000 O   0  0  0  0  0  0  0  0  0  0  0  0
    5.2921  -11.0511    0.0000 O   0  0  0  0  0  0  0  0  0  0  0  0
    6.1495  -10.5561    0.0000 O   0  0  0  0  0  0  0  0  0  0  0  0
    8.7216   -9.0711    0.0000 O   0  0  0  0  0  0  0  0  0  0  0  0
    0.5766  -11.7936    0.0000 O   0  0  0  0  0  0  0  0  0  0  0  0
    2.2913  -10.8036    0.0000 O   0  0  0  0  0  0  0  0  0  0  0  0
    5.7208  -11.2986    0.0000 C   0  0  0  0  0  0  0  0  0  0  0  0
    7.4355  -10.3086    0.0000 C   0  0  0  0  0  0  0  0  0  0  0  0
    9.1503   -9.3186    0.0000 C   0  0  0  0  0  0  0  0  0  0  0  0
   11.3000   -4.6189    0.0000 O   0  0  0  0  0  0  0  0  0  0  0  0
   13.0148   -5.6089    0.0000 C   0  0  0  0  0  0  0  0  0  0  0  0
   12.5861   -5.3614    0.0000 C   0  0  0  0  0  0  0  0  0  0  0  0
   13.4434   -5.3614    0.0000 O   0  0  0  0  0  0  0  0  0  0  0  0
   12.1574   -5.6089    0.0000 C   0  0  0  0  0  0  0  0  0  0  0  0
   13.4434   -5.8564    0.0000 O   0  0  0  0  0  0  0  0  0  0  0  0
   11.7287   -6.3514    0.0000 O   0  0  0  0  0  0  0  0  0  0  0  0
   12.1574   -7.0939    0.0000 O   0  0  0  0  0  0  0  0  0  0  0  0
   10.8713   -6.3514    0.0000 C   0  0  0  0  0  0  0  0  0  0  0  0
    9.5853   -7.5889    0.0000 O   0  0  0  0  0  0  0  0  0  0  0  0
  1  2  1  0  0  0  0
  2  3  1  0  0  0  0
  3  4  1  0  0  0  0
  4  5  1  0  0  0  0
  5  6  1  0  0  0  0
  6  1  1  0  0  0  0
  4  7  1  0  0  0  0
  7  8  1  0  0  0  0
  8  9  1  0  0  0  0
  9 10  1  0  0  0  0
 10  5  1  0  0  0  0
  9 11  1  0  0  0  0
 11 12  1  0  0  0  0
 12 13  1  0  0  0  0
 13 14  1  0  0  0  0
 14 10  1  0  0  0  0
 11 15  1  0  0  0  0
 15 16  1  0  0  0  0
 16 17  1  0  0  0  0
 13 18  1  1  0  0  0
 18 19  1  0  0  0  0
 19 20  1  0  0  0  0
 20 21  1  0  0  0  0
 20 22  2  0  0  0  0
 22 23  1  0  0  0  0
 23 24  2  0  0  0  0
 24 25  1  0  0  0  0
 25 21  2  0  0  0  0
 26 27  1  0  0  0  0
 27 28  1  0  0  0  0
 28 29  1  0  0  0  0
 29 30  1  0  0  0  0
 30 31  1  0  0  0  0
 31 26  1  0  0  0  0
 26 32  1  1  0  0  0
 28 33  1  1  0  0  0
 30 34  1  1  0  0  0
 35 34  1  6  0  0  0
 35 36  1  0  0  0  0
 36 37  1  0  0  0  0
 37 38  1  0  0  0  0
 38 39  1  0  0  0  0
 39 40  1  0  0  0  0
 40 35  1  0  0  0  0
 38 41  1  1  0  0  0
 42 41  1  6  0  0  0
 42 43  1  0  0  0  0
 43 44  1  0  0  0  0
 44 45  1  0  0  0  0
 45 46  1  0  0  0  0
 46 47  1  0  0  0  0
 47 42  1  0  0  0  0
 45 48  1  1  0  0  0
 49 48  1  6  0  0  0
 49 50  1  0  0  0  0
 50 51  1  0  0  0  0
 51 52  1  0  0  0  0
 52 53  1  0  0  0  0
 53 54  1  0  0  0  0
 54 49  1  0  0  0  0
 52 55  1  1  0  0  0
 56 55  1  6  0  0  0
 56 57  1  0  0  0  0
 57 58  1  0  0  0  0
 58 59  1  0  0  0  0
 59 60  1  0  0  0  0
 60 61  1  0  0  0  0
 61 56  1  0  0  0  0
 36 62  1  1  0  0  0
 40 63  1  1  0  0  0
 47 64  1  1  0  0  0
 50 65  1  1  0  0  0
 54 66  1  1  0  0  0
 61 67  1  1  0  0  0
 27 68  1  6  0  0  0
 29 69  1  6  0  0  0
 37 70  1  6  0  0  0
 43 71  1  6  0  0  0
 44 72  1  6  0  0  0
 57 73  1  6  0  0  0
 32 74  1  0  0  0  0
 63 75  1  0  0  0  0
 71 76  1  0  0  0  0
 65 77  1  0  0  0  0
 73 78  1  0  0  0  0
 19 79  2  0  0  0  0
 12 17  1  0  0  0  0
 17 80  1  0  0  0  0
 80 81  1  0  0  0  0
 80 82  1  0  0  0  0
 12 83  1  1  0  0  0
 17 84  1  1  0  0  0
  9 85  1  1  0  0  0
 11 86  1  1  0  0  0
  5 87  1  1  0  0  0
  2 88  1  1  0  0  0
 59 88  1  1  0  0  0
M  END
>  <cdx:fragmentId>
88

$$$$
