991472.cdx
  Mrv1902 05222410272D          

 23 24  0  0  0  0            999 V2000
    6.9314   -6.2820    0.0000 O   0  0  0  0  0  0  0  0  0  0  0  0
    7.6459   -6.6945    0.0000 C   0  0  1  0  0  0  0  0  0  0  0  0
    7.6459   -7.5195    0.0000 C   0  0  1  0  0  0  0  0  0  0  0  0
    6.9314   -7.9320    0.0000 C   0  0  2  0  0  0  0  0  0  0  0  0
    6.2169   -7.5195    0.0000 C   0  0  2  0  0  0  0  0  0  0  0  0
    6.2169   -6.6945    0.0000 C   0  0  1  0  0  0  0  0  0  0  0  0
    8.3603   -7.9320    0.0000 O   0  0  0  0  0  0  0  0  0  0  0  0
    6.9314   -8.7570    0.0000 O   0  0  0  0  0  0  0  0  0  0  0  0
    5.5025   -7.9320    0.0000 O   0  0  0  0  0  0  0  0  0  0  0  0
    5.5025   -6.2820    0.0000 C   0  0  0  0  0  0  0  0  0  0  0  0
    4.7880   -6.6945    0.0000 O   0  0  0  0  0  0  0  0  0  0  0  0
    8.3603   -6.2820    0.0000 O   0  0  0  0  0  0  0  0  0  0  0  0
    7.5722   -4.4825    0.0000 C   0  0  1  0  0  0  0  0  0  0  0  0
    7.5722   -5.3075    0.0000 O   0  0  0  0  0  0  0  0  0  0  0  0
    8.3569   -5.5624    0.0000 C   0  0  2  0  0  0  0  0  0  0  0  0
    8.8418   -4.8950    0.0000 C   0  0  2  0  0  0  0  0  0  0  0  0
    8.3569   -4.2276    0.0000 C   0  0  2  0  0  0  0  0  0  0  0  0
    9.6668   -4.6750    0.0000 O   0  0  0  0  0  0  0  0  0  0  0  0
    6.9048   -3.9976    0.0000 C   0  0  0  0  0  0  0  0  0  0  0  0
    8.6118   -3.4429    0.0000 O   0  0  0  0  0  0  0  0  0  0  0  0
    9.1421   -5.8155    0.0000 C   0  0  0  0  0  0  0  0  0  0  0  0
    9.7539   -5.2620    0.0000 O   0  0  0  0  0  0  0  0  0  0  0  0
    6.9085   -3.2321    0.0000 O   0  0  0  0  0  0  0  0  0  0  0  0
  1  2  1  0  0  0  0
  2  3  1  0  0  0  0
  3  4  1  0  0  0  0
  4  5  1  0  0  0  0
  5  6  1  0  0  0  0
  1  6  1  0  0  0  0
  3  7  1  6  0  0  0
  4  8  1  1  0  0  0
  5  9  1  1  0  0  0
 10 11  1  0  0  0  0
  6 10  1  1  0  0  0
  2 12  1  6  0  0  0
 13 14  1  0  0  0  0
 14 15  1  0  0  0  0
 15 16  1  0  0  0  0
 16 17  1  0  0  0  0
 17 13  1  0  0  0  0
 15 12  1  6  0  0  0
 16 18  1  6  0  0  0
 13 19  1  6  0  0  0
 17 20  1  1  0  0  0
 15 21  1  0  0  0  0
 21 22  1  0  0  0  0
 19 23  1  0  0  0  0
M  END
>  <cdx:fragmentId>
93

$$$$
