91471.cdx
  Mrv1902 05222410282D          

 29 32  0  0  0  0            999 V2000
    3.7238  -10.7657    0.0000 C   0  0  2  0  0  0  0  0  0  0  0  0
    3.3113  -11.4801    0.0000 C   0  0  2  0  0  0  0  0  0  0  0  0
    3.7238  -12.1946    0.0000 C   0  0  1  0  0  0  0  0  0  0  0  0
    4.5488  -12.1946    0.0000 C   0  0  2  0  0  0  0  0  0  0  0  0
    4.9613  -11.4801    0.0000 O   0  0  0  0  0  0  0  0  0  0  0  0
    4.5488  -10.7657    0.0000 C   0  0  2  0  0  0  0  0  0  0  0  0
    3.3113  -12.9091    0.0000 O   0  0  0  0  0  0  0  0  0  0  0  0
    4.5488  -13.6236    0.0000 O   0  0  0  0  0  0  0  0  0  0  0  0
    4.9613  -12.9091    0.0000 C   0  0  0  0  0  0  0  0  0  0  0  0
    5.7863  -10.0512    0.0000 C   0  0  0  0  0  0  0  0  0  0  0  0
    4.9613  -10.0512    0.0000 O   0  0  0  0  0  0  0  0  0  0  0  0
    6.6113  -10.0512    0.0000 C   0  0  2  0  0  0  0  0  0  0  0  0
    7.0962  -10.7186    0.0000 O   0  0  0  0  0  0  0  0  0  0  0  0
    7.8808  -10.4637    0.0000 C   0  0  0  0  0  0  0  0  0  0  0  0
    7.8808   -9.6387    0.0000 C   0  0  0  0  0  0  0  0  0  0  0  0
    7.0962   -9.3838    0.0000 C   0  0  0  0  0  0  0  0  0  0  0  0
    8.5953  -10.8762    0.0000 C   0  0  0  0  0  0  0  0  0  0  0  0
    9.3098  -10.4637    0.0000 C   0  0  0  0  0  0  0  0  0  0  0  0
    9.3098   -9.6387    0.0000 C   0  0  0  0  0  0  0  0  0  0  0  0
    8.5953   -9.2262    0.0000 C   0  0  0  0  0  0  0  0  0  0  0  0
   10.0242   -9.2262    0.0000 C   0  0  0  0  0  0  0  0  0  0  0  0
   10.0242   -8.4012    0.0000 C   0  0  0  0  0  0  0  0  0  0  0  0
    9.3098   -7.9887    0.0000 C   0  0  0  0  0  0  0  0  0  0  0  0
    8.5953   -8.4012    0.0000 O   0  0  0  0  0  0  0  0  0  0  0  0
    5.7863   -9.2262    0.0000 C   0  0  0  0  0  0  0  0  0  0  0  0
    5.7863  -10.8762    0.0000 C   0  0  0  0  0  0  0  0  0  0  0  0
    3.3113  -10.0512    0.0000 O   0  0  0  0  0  0  0  0  0  0  0  0
    2.4863  -11.4801    0.0000 O   0  0  0  0  0  0  0  0  0  0  0  0
    9.3098   -7.1637    0.0000 O   0  0  0  0  0  0  0  0  0  0  0  0
  1  2  1  0  0  0  0
  2  3  1  0  0  0  0
  3  4  1  0  0  0  0
  4  5  1  0  0  0  0
  5  6  1  0  0  0  0
  6  1  1  0  0  0  0
  3  7  1  1  0  0  0
  8  9  1  0  0  0  0
  4  9  1  6  0  0  0
 10 11  1  0  0  0  0
  6 11  1  1  0  0  0
 12 10  1  1  0  0  0
 12 13  1  0  0  0  0
 13 14  1  0  0  0  0
 14 15  1  0  0  0  0
 15 16  1  0  0  0  0
 16 12  1  0  0  0  0
 14 17  2  0  0  0  0
 17 18  1  0  0  0  0
 18 19  2  0  0  0  0
 19 20  1  0  0  0  0
 20 15  2  0  0  0  0
 19 21  1  0  0  0  0
 21 22  2  0  0  0  0
 22 23  1  0  0  0  0
 23 24  1  0  0  0  0
 24 20  1  0  0  0  0
 10 25  1  0  0  0  0
 10 26  1  0  0  0  0
  1 27  1  1  0  0  0
  2 28  1  6  0  0  0
 23 29  2  0  0  0  0
M  END
>  <cdx:fragmentId>
5

$$$$
