991454.cdx
  Mrv1902 05222410182D          

 37 42  0  0  0  0            999 V2000
   11.7228   -5.7214    0.0000 C   0  0  0  0  0  0  0  0  0  0  0  0
    8.6854   -6.1685    0.0000 C   0  0  0  0  0  0  0  0  0  0  0  0
    9.3825   -8.9953    0.0000 H   0  0  0  0  0  0  0  0  0  0  0  0
    8.0507   -6.9128    0.0000 H   0  0  0  0  0  0  0  0  0  0  0  0
    7.6801   -7.0611    0.0000 C   0  0  0  0  0  0  0  0  0  0  0  0
    7.6974   -9.5360    0.0000 H   0  0  0  0  0  0  0  0  0  0  0  0
    6.9873   -8.3059    0.0000 H   0  0  0  0  0  0  0  0  0  0  0  0
    6.9613   -6.6561    0.0000 O   0  0  0  0  0  0  0  0  0  0  0  0
    6.2685   -9.5509    0.0000 H   0  0  0  0  0  0  0  0  0  0  0  0
    5.5671  -10.7959    0.0000 H   0  0  0  0  0  0  0  0  0  0  0  0
    5.5584   -8.3209    0.0000 C   0  0  0  0  0  0  0  0  0  0  0  0
    3.4281  -10.4058    0.0000 O   0  0  0  0  0  0  0  0  0  0  0  0
   10.4930   -7.5247    0.0000 C   0  0  0  0  0  0  0  0  0  0  0  0
   11.1553   -7.0328    0.0000 C   0  0  0  0  0  0  0  0  0  0  0  0
   11.0605   -6.2133    0.0000 C   0  0  2  0  0  0  0  0  0  0  0  0
   10.3033   -5.8857    0.0000 C   0  0  0  0  0  0  0  0  0  0  0  0
    9.6410   -6.3776    0.0000 O   0  0  0  0  0  0  0  0  0  0  0  0
    9.7445   -8.0220    0.0000 O   0  0  0  0  0  0  0  0  0  0  0  0
    9.7358   -7.1971    0.0000 C   0  0  1  0  0  0  0  0  0  0  0  0
    8.9486   -6.9504    0.0000 C   0  0  2  0  0  0  0  0  0  0  0  0
    8.4846   -8.9577    0.0000 C   0  0  0  0  0  0  0  0  0  0  0  0
    8.9625   -8.2852    0.0000 C   0  0  1  0  0  0  0  0  0  0  0  0
    8.4707   -7.6229    0.0000 C   0  0  1  0  0  0  0  0  0  0  0  0
    7.6974   -8.7110    0.0000 C   0  0  2  0  0  0  0  0  0  0  0  0
    7.6887   -7.8860    0.0000 C   0  0  1  0  0  0  0  0  0  0  0  0
    6.9700   -7.4810    0.0000 C   0  0  0  0  0  0  0  0  0  0  0  0
    6.2599   -7.9010    0.0000 C   0  0  0  0  0  0  0  0  0  0  0  0
    6.2858  -10.3759    0.0000 C   0  0  0  0  0  0  0  0  0  0  0  0
    6.9959   -9.9559    0.0000 C   0  0  0  0  0  0  0  0  0  0  0  0
    6.9873   -9.1309    0.0000 C   0  0  2  0  0  0  0  0  0  0  0  0
    6.2685   -8.7259    0.0000 C   0  0  1  0  0  0  0  0  0  0  0  0
    4.1296   -9.1609    0.0000 C   0  0  0  0  0  0  0  0  0  0  0  0
    4.1382   -9.9858    0.0000 C   0  0  1  0  0  0  0  0  0  0  0  0
    4.8570  -10.3908    0.0000 C   0  0  0  0  0  0  0  0  0  0  0  0
    5.5671   -9.9709    0.0000 C   0  0  1  0  0  0  0  0  0  0  0  0
    5.5584   -9.1459    0.0000 C   0  0  1  0  0  0  0  0  0  0  0  0
    4.8397   -8.7409    0.0000 C   0  0  0  0  0  0  0  0  0  0  0  0
 15  1  1  6  0  0  0
 20  2  1  6  0  0  0
 22  3  1  6  0  0  0
 23  4  1  6  0  0  0
 25  5  1  1  0  0  0
 24  6  1  6  0  0  0
 30  7  1  1  0  0  0
 26  8  2  0  0  0  0
 31  9  1  6  0  0  0
 35 10  1  6  0  0  0
 36 11  1  1  0  0  0
 33 12  1  1  0  0  0
 13 19  1  0  0  0  0
 14 13  1  0  0  0  0
 15 14  1  0  0  0  0
 16 15  1  0  0  0  0
 17 16  1  0  0  0  0
 19 17  1  0  0  0  0
 18 22  1  0  0  0  0
 19 18  1  6  0  0  0
 20 19  1  0  0  0  0
 23 20  1  0  0  0  0
 21 24  1  0  0  0  0
 22 21  1  0  0  0  0
 23 22  1  0  0  0  0
 25 23  1  0  0  0  0
 24 30  1  0  0  0  0
 25 24  1  0  0  0  0
 26 25  1  0  0  0  0
 27 26  1  0  0  0  0
 31 27  1  0  0  0  0
 28 35  1  0  0  0  0
 29 28  1  0  0  0  0
 30 29  1  0  0  0  0
 31 30  1  0  0  0  0
 36 31  1  0  0  0  0
 32 37  1  0  0  0  0
 33 32  1  0  0  0  0
 34 33  1  0  0  0  0
 35 34  1  0  0  0  0
 36 35  1  0  0  0  0
 37 36  1  0  0  0  0
M  END
>  <cdx:fragmentId>
44

$$$$
