991451.cdx
  Mrv1902 05222410202D          

 79 88  0  0  0  0            999 V2000
   20.5503   -6.2714    0.0000 C   0  0  0  0  0  0  0  0  0  0  0  0
   17.5129   -6.7185    0.0000 C   0  0  0  0  0  0  0  0  0  0  0  0
   18.2100   -9.5453    0.0000 H   0  0  0  0  0  0  0  0  0  0  0  0
   16.8782   -7.4628    0.0000 H   0  0  0  0  0  0  0  0  0  0  0  0
   16.5076   -7.6111    0.0000 C   0  0  0  0  0  0  0  0  0  0  0  0
   16.5249  -10.0860    0.0000 H   0  0  0  0  0  0  0  0  0  0  0  0
   15.8148   -8.8559    0.0000 H   0  0  0  0  0  0  0  0  0  0  0  0
   15.7888   -7.2061    0.0000 O   0  0  0  0  0  0  0  0  0  0  0  0
   15.0960  -10.1009    0.0000 H   0  0  0  0  0  0  0  0  0  0  0  0
   14.3946  -11.3459    0.0000 H   0  0  0  0  0  0  0  0  0  0  0  0
   14.3859   -8.8709    0.0000 C   0  0  0  0  0  0  0  0  0  0  0  0
   12.2556  -10.9558    0.0000 O   0  0  0  0  0  0  0  0  0  0  0  0
   19.3205   -8.0747    0.0000 C   0  0  0  0  0  0  0  0  0  0  0  0
   19.9828   -7.5828    0.0000 C   0  0  0  0  0  0  0  0  0  0  0  0
   19.8880   -6.7633    0.0000 C   0  0  2  0  0  0  0  0  0  0  0  0
   19.1308   -6.4357    0.0000 C   0  0  0  0  0  0  0  0  0  0  0  0
   18.4685   -6.9276    0.0000 O   0  0  0  0  0  0  0  0  0  0  0  0
   18.5720   -8.5720    0.0000 O   0  0  0  0  0  0  0  0  0  0  0  0
   18.5633   -7.7471    0.0000 C   0  0  1  0  0  0  0  0  0  0  0  0
   17.7761   -7.5004    0.0000 C   0  0  2  0  0  0  0  0  0  0  0  0
   17.3121   -9.5077    0.0000 C   0  0  0  0  0  0  0  0  0  0  0  0
   17.7900   -8.8352    0.0000 C   0  0  1  0  0  0  0  0  0  0  0  0
   17.2982   -8.1729    0.0000 C   0  0  1  0  0  0  0  0  0  0  0  0
   16.5249   -9.2610    0.0000 C   0  0  2  0  0  0  0  0  0  0  0  0
   16.5162   -8.4360    0.0000 C   0  0  1  0  0  0  0  0  0  0  0  0
   15.7975   -8.0310    0.0000 C   0  0  0  0  0  0  0  0  0  0  0  0
   15.0874   -8.4510    0.0000 C   0  0  0  0  0  0  0  0  0  0  0  0
   15.1133  -10.9259    0.0000 C   0  0  0  0  0  0  0  0  0  0  0  0
   15.8234  -10.5059    0.0000 C   0  0  0  0  0  0  0  0  0  0  0  0
   15.8148   -9.6809    0.0000 C   0  0  2  0  0  0  0  0  0  0  0  0
   15.0960   -9.2759    0.0000 C   0  0  1  0  0  0  0  0  0  0  0  0
   12.9571   -9.7109    0.0000 C   0  0  0  0  0  0  0  0  0  0  0  0
   12.9657  -10.5358    0.0000 C   0  0  1  0  0  0  0  0  0  0  0  0
   13.6845  -10.9408    0.0000 C   0  0  0  0  0  0  0  0  0  0  0  0
   14.3946  -10.5209    0.0000 C   0  0  1  0  0  0  0  0  0  0  0  0
   14.3859   -9.6959    0.0000 C   0  0  1  0  0  0  0  0  0  0  0  0
   13.6672   -9.2909    0.0000 C   0  0  0  0  0  0  0  0  0  0  0  0
   11.5368  -10.5508    0.0000 C   0  0  2  0  0  0  0  0  0  0  0  0
   11.5238   -9.7259    0.0000 O   0  0  0  0  0  0  0  0  0  0  0  0
   10.8029   -9.3247    0.0000 C   0  0  1  0  0  0  0  0  0  0  0  0
   10.0951   -9.7259    0.0000 C   0  0  1  0  0  0  0  0  0  0  0  0
   10.0951  -10.5508    0.0000 C   0  0  1  0  0  0  0  0  0  0  0  0
   10.8029  -10.9520    0.0000 C   0  0  1  0  0  0  0  0  0  0  0  0
   10.7997   -8.4997    0.0000 C   0  0  0  0  0  0  0  0  0  0  0  0
    9.3822  -10.9662    0.0000 O   0  0  0  0  0  0  0  0  0  0  0  0
   10.7966  -11.7770    0.0000 O   0  0  0  0  0  0  0  0  0  0  0  0
    9.3822   -9.3106    0.0000 O   0  0  0  0  0  0  0  0  0  0  0  0
   11.5126   -8.0845    0.0000 O   0  0  0  0  0  0  0  0  0  0  0  0
    9.3855   -8.4856    0.0000 C   0  0  2  0  0  0  0  0  0  0  0  0
   10.0992   -8.0716    0.0000 O   0  0  0  0  0  0  0  0  0  0  0  0
   10.0992   -7.2466    0.0000 C   0  0  1  0  0  0  0  0  0  0  0  0
    9.3855   -6.8356    0.0000 C   0  0  2  0  0  0  0  0  0  0  0  0
    8.6719   -7.2466    0.0000 C   0  0  1  0  0  0  0  0  0  0  0  0
    8.6719   -8.0716    0.0000 C   0  0  1  0  0  0  0  0  0  0  0  0
   10.8134   -6.8338    0.0000 C   0  0  0  0  0  0  0  0  0  0  0  0
    7.9576   -6.8338    0.0000 O   0  0  0  0  0  0  0  0  0  0  0  0
    7.9570   -8.4834    0.0000 O   0  0  0  0  0  0  0  0  0  0  0  0
    9.3855   -6.0106    0.0000 O   0  0  0  0  0  0  0  0  0  0  0  0
   10.8130   -6.0088    0.0000 O   0  0  0  0  0  0  0  0  0  0  0  0
    7.9549   -6.0088    0.0000 C   0  0  2  0  0  0  0  0  0  0  0  0
    8.6683   -5.5943    0.0000 O   0  0  0  0  0  0  0  0  0  0  0  0
    8.6647   -4.7686    0.0000 C   0  0  0  0  0  0  0  0  0  0  0  0
    7.9487   -4.3588    0.0000 C   0  0  2  0  0  0  0  0  0  0  0  0
    7.2349   -4.7740    0.0000 C   0  0  1  0  0  0  0  0  0  0  0  0
    7.2389   -5.5990    0.0000 C   0  0  1  0  0  0  0  0  0  0  0  0
    6.5262   -6.0146    0.0000 O   0  0  0  0  0  0  0  0  0  0  0  0
    6.5188   -4.3644    0.0000 O   0  0  0  0  0  0  0  0  0  0  0  0
    7.9457   -3.5338    0.0000 O   0  0  0  0  0  0  0  0  0  0  0  0
    7.1321   -8.4727    0.0000 C   0  0  2  0  0  0  0  0  0  0  0  0
    6.7292   -7.7528    0.0000 O   0  0  0  0  0  0  0  0  0  0  0  0
    5.9043   -7.7417    0.0000 C   0  0  1  0  0  0  0  0  0  0  0  0
    5.4833   -8.4525    0.0000 C   0  0  2  0  0  0  0  0  0  0  0  0
    5.8873   -9.1718    0.0000 C   0  0  1  0  0  0  0  0  0  0  0  0
    6.7133   -9.1823    0.0000 C   0  0  1  0  0  0  0  0  0  0  0  0
    5.5006   -7.0222    0.0000 C   0  0  0  0  0  0  0  0  0  0  0  0
    5.4660   -9.8811    0.0000 O   0  0  0  0  0  0  0  0  0  0  0  0
    4.6757   -7.0121    0.0000 O   0  0  0  0  0  0  0  0  0  0  0  0
    4.6584   -8.4429    0.0000 O   0  0  0  0  0  0  0  0  0  0  0  0
    7.1178   -9.9013    0.0000 O   0  0  0  0  0  0  0  0  0  0  0  0
 15  1  1  6  0  0  0
 20  2  1  6  0  0  0
 22  3  1  6  0  0  0
 23  4  1  6  0  0  0
 25  5  1  1  0  0  0
 24  6  1  6  0  0  0
 30  7  1  1  0  0  0
 26  8  2  0  0  0  0
 31  9  1  6  0  0  0
 35 10  1  6  0  0  0
 36 11  1  1  0  0  0
 33 12  1  1  0  0  0
 13 19  1  0  0  0  0
 14 13  1  0  0  0  0
 15 14  1  0  0  0  0
 16 15  1  0  0  0  0
 17 16  1  0  0  0  0
 19 17  1  0  0  0  0
 18 22  1  0  0  0  0
 19 18  1  6  0  0  0
 20 19  1  0  0  0  0
 23 20  1  0  0  0  0
 21 24  1  0  0  0  0
 22 21  1  0  0  0  0
 23 22  1  0  0  0  0
 25 23  1  0  0  0  0
 24 30  1  0  0  0  0
 25 24  1  0  0  0  0
 26 25  1  0  0  0  0
 27 26  1  0  0  0  0
 31 27  1  0  0  0  0
 28 35  1  0  0  0  0
 29 28  1  0  0  0  0
 30 29  1  0  0  0  0
 31 30  1  0  0  0  0
 36 31  1  0  0  0  0
 32 37  1  0  0  0  0
 33 32  1  0  0  0  0
 34 33  1  0  0  0  0
 35 34  1  0  0  0  0
 36 35  1  0  0  0  0
 37 36  1  0  0  0  0
 38 12  1  1  0  0  0
 38 39  1  0  0  0  0
 39 40  1  0  0  0  0
 40 41  1  0  0  0  0
 41 42  1  0  0  0  0
 42 43  1  0  0  0  0
 43 38  1  0  0  0  0
 40 44  1  1  0  0  0
 42 45  1  1  0  0  0
 43 46  1  6  0  0  0
 41 47  1  1  0  0  0
 44 48  1  0  0  0  0
 49 47  1  1  0  0  0
 49 50  1  0  0  0  0
 50 51  1  0  0  0  0
 51 52  1  0  0  0  0
 52 53  1  0  0  0  0
 53 54  1  0  0  0  0
 54 49  1  0  0  0  0
 51 55  1  1  0  0  0
 53 56  1  1  0  0  0
 54 57  1  6  0  0  0
 52 58  1  6  0  0  0
 55 59  1  0  0  0  0
 60 56  1  1  0  0  0
 60 61  1  0  0  0  0
 61 62  1  0  0  0  0
 62 63  1  0  0  0  0
 63 64  1  0  0  0  0
 64 65  1  0  0  0  0
 65 60  1  0  0  0  0
 65 66  1  6  0  0  0
 64 67  1  1  0  0  0
 63 68  1  6  0  0  0
 69 57  1  1  0  0  0
 69 70  1  0  0  0  0
 70 71  1  0  0  0  0
 71 72  1  0  0  0  0
 72 73  1  0  0  0  0
 73 74  1  0  0  0  0
 74 69  1  0  0  0  0
 71 75  1  1  0  0  0
 73 76  1  1  0  0  0
 75 77  1  0  0  0  0
 72 78  1  6  0  0  0
 74 79  1  6  0  0  0
M  END
>  <cdx:fragmentId>
44

$$$$
