91508.cdx
  Mrv1902 05222410182D          

 31 30  0  0  0  0            999 V2000
    1.0551   -4.6445    0.0000 C   0  0  0  0  0  0  0  0  0  0  0  0
    1.8801   -4.6418    0.0000 C   0  0  0  0  0  0  0  0  0  0  0  0
    2.2950   -5.3549    0.0000 C   0  0  0  0  0  0  0  0  0  0  0  0
    3.1200   -5.3521    0.0000 C   0  0  0  0  0  0  0  0  0  0  0  0
    3.5349   -6.0652    0.0000 C   0  0  0  0  0  0  0  0  0  0  0  0
    4.3599   -6.0624    0.0000 C   0  0  0  0  0  0  0  0  0  0  0  0
    4.7748   -6.7755    0.0000 C   0  0  0  0  0  0  0  0  0  0  0  0
    5.5998   -6.7728    0.0000 C   0  0  0  0  0  0  0  0  0  0  0  0
    6.0147   -7.4859    0.0000 C   0  0  0  0  0  0  0  0  0  0  0  0
    6.8397   -7.4831    0.0000 C   0  0  0  0  0  0  0  0  0  0  0  0
    7.2546   -8.1962    0.0000 C   0  0  0  0  0  0  0  0  0  0  0  0
    5.6988  -15.0864    0.0000 C   0  0  0  0  0  0  0  0  0  0  0  0
    5.4434  -14.3020    0.0000 C   0  0  0  0  0  0  0  0  0  0  0  0
    5.9950  -13.6885    0.0000 C   0  0  0  0  0  0  0  0  0  0  0  0
    5.7395  -12.9041    0.0000 C   0  0  0  0  0  0  0  0  0  0  0  0
    6.2911  -12.2906    0.0000 C   0  0  0  0  0  0  0  0  0  0  0  0
    6.0356  -11.5062    0.0000 C   0  0  0  0  0  0  0  0  0  0  0  0
    6.5872  -10.8927    0.0000 C   0  0  0  0  0  0  0  0  0  0  0  0
    6.3317  -10.1082    0.0000 C   0  0  0  0  0  0  0  0  0  0  0  0
    6.8833   -9.4948    0.0000 C   0  0  0  0  0  0  0  0  0  0  0  0
    6.6279   -8.7103    0.0000 C   0  0  0  0  0  0  0  0  0  0  0  0
   13.3390   -4.4688    0.0000 C   0  0  0  0  0  0  0  0  0  0  0  0
   12.9365   -5.1889    0.0000 C   0  0  0  0  0  0  0  0  0  0  0  0
   12.1116   -5.2004    0.0000 C   0  0  0  0  0  0  0  0  0  0  0  0
   11.7091   -5.9206    0.0000 C   0  0  0  0  0  0  0  0  0  0  0  0
   10.8842   -5.9321    0.0000 C   0  0  0  0  0  0  0  0  0  0  0  0
   10.4817   -6.6523    0.0000 C   0  0  0  0  0  0  0  0  0  0  0  0
    9.6568   -6.6638    0.0000 C   0  0  0  0  0  0  0  0  0  0  0  0
    9.2543   -7.3840    0.0000 C   0  0  0  0  0  0  0  0  0  0  0  0
    8.4294   -7.3955    0.0000 C   0  0  0  0  0  0  0  0  0  0  0  0
    8.0270   -8.1157    0.0000 C   0  0  0  0  0  0  0  0  0  0  0  0
  1  2  1  0  0  0  0
  2  3  1  0  0  0  0
  3  4  1  0  0  0  0
  4  5  1  0  0  0  0
  5  6  1  0  0  0  0
  6  7  1  0  0  0  0
  7  8  1  0  0  0  0
  8  9  1  0  0  0  0
  9 10  1  0  0  0  0
 10 11  1  0  0  0  0
 12 13  1  0  0  0  0
 13 14  1  0  0  0  0
 14 15  1  0  0  0  0
 15 16  1  0  0  0  0
 16 17  1  0  0  0  0
 17 18  1  0  0  0  0
 18 19  1  0  0  0  0
 19 20  1  0  0  0  0
 20 21  1  0  0  0  0
 22 23  1  0  0  0  0
 23 24  1  0  0  0  0
 24 25  1  0  0  0  0
 25 26  1  0  0  0  0
 26 27  1  0  0  0  0
 27 28  1  0  0  0  0
 28 29  1  0  0  0  0
 29 30  1  0  0  0  0
 30 31  1  0  0  0  0
 21 11  1  0  0  0  0
 31 11  1  0  0  0  0
M  END
>  <cdx:fragmentId>
3

$$$$
