99157.cdx
  Mrv1902 05222410272D          

 40 44  0  0  0  0            999 V2000
    9.8267   -8.1704    0.0000 C   0  0  0  0  0  0  0  0  0  0  0  0
   10.6337   -7.9988    0.0000 C   0  0  0  0  0  0  0  0  0  0  0  0
    8.0727  -10.4474    0.0000 C   0  0  2  0  0  0  0  0  0  0  0  0
    8.7871  -10.8599    0.0000 O   0  0  0  0  0  0  0  0  0  0  0  0
    8.7871  -10.0349    0.0000 C   0  0  1  0  0  0  0  0  0  0  0  0
    9.5718  -10.2899    0.0000 C   0  0  0  0  0  0  0  0  0  0  0  0
   10.0567   -9.6224    0.0000 C   0  0  0  0  0  0  0  0  0  0  0  0
    9.5718   -8.9550    0.0000 C   0  0  2  0  0  0  0  0  0  0  0  0
    8.7871   -9.2099    0.0000 C   0  0  1  0  0  0  0  0  0  0  0  0
    8.0727   -8.7974    0.0000 C   0  0  1  0  0  0  0  0  0  0  0  0
    7.3582   -9.2099    0.0000 C   0  0  2  0  0  0  0  0  0  0  0  0
    7.3582  -10.0349    0.0000 C   0  0  2  0  0  0  0  0  0  0  0  0
    6.6437  -10.4474    0.0000 C   0  0  1  0  0  0  0  0  0  0  0  0
    5.9293  -10.0349    0.0000 C   0  0  0  0  0  0  0  0  0  0  0  0
    5.2148  -10.4474    0.0000 C   0  0  0  0  0  0  0  0  0  0  0  0
    5.2148  -11.2724    0.0000 C   0  0  1  0  0  0  0  0  0  0  0  0
    5.9293  -11.6849    0.0000 C   0  0  0  0  0  0  0  0  0  0  0  0
    6.6437  -11.2724    0.0000 C   0  0  2  0  0  0  0  0  0  0  0  0
    7.3582  -11.6849    0.0000 C   0  0  0  0  0  0  0  0  0  0  0  0
    8.0727  -11.2724    0.0000 C   0  0  0  0  0  0  0  0  0  0  0  0
    6.6437   -9.6224    0.0000 C   0  0  0  0  0  0  0  0  0  0  0  0
    8.8734   -8.3895    0.0000 C   0  0  0  0  0  0  0  0  0  0  0  0
    4.5003  -11.6849    0.0000 O   0  0  0  0  0  0  0  0  0  0  0  0
    6.6437   -8.7974    0.0000 O   0  0  0  0  0  0  0  0  0  0  0  0
    8.0727   -7.9724    0.0000 O   0  0  0  0  0  0  0  0  0  0  0  0
    9.2747   -7.5573    0.0000 O   0  0  0  0  0  0  0  0  0  0  0  0
    7.3582  -10.8599    0.0000 H   0  0  0  0  0  0  0  0  0  0  0  0
    6.6437  -12.0974    0.0000 H   0  0  0  0  0  0  0  0  0  0  0  0
    4.1424   -7.3522    0.0000 C   0  0  0  0  0  0  0  0  0  0  0  0
    4.5581   -8.0648    0.0000 C   0  0  0  0  0  0  0  0  0  0  0  0
    5.7924   -7.3447    0.0000 C   0  0  0  0  0  0  0  0  0  0  0  0
    5.3831   -8.0610    0.0000 C   0  0  0  0  0  0  0  0  0  0  0  0
    5.3895   -9.4900    0.0000 O   0  0  0  0  0  0  0  0  0  0  0  0
    5.7988   -8.7737    0.0000 C   0  0  0  0  0  0  0  0  0  0  0  0
    6.6432   -7.9629    0.0000 O   0  0  0  0  0  0  0  0  0  0  0  0
    8.0727   -6.3134    0.0000 C   0  0  0  0  0  0  0  0  0  0  0  0
    7.3578   -7.5506    0.0000 C   0  0  0  0  0  0  0  0  0  0  0  0
    7.3581   -6.7256    0.0000 C   0  0  0  0  0  0  0  0  0  0  0  0
    6.6441   -5.4879    0.0000 C   0  0  0  0  0  0  0  0  0  0  0  0
    6.6438   -6.3129    0.0000 C   0  0  0  0  0  0  0  0  0  0  0  0
  1  2  1  0  0  0  0
  3  4  1  1  0  0  0
  5  4  1  1  0  0  0
  5  6  1  0  0  0  0
  6  7  1  0  0  0  0
  7  8  1  0  0  0  0
  8  9  1  0  0  0  0
  9 10  1  0  0  0  0
 10 11  1  0  0  0  0
 11 12  1  0  0  0  0
 12 13  1  0  0  0  0
 13 14  1  0  0  0  0
 14 15  1  0  0  0  0
 15 16  1  0  0  0  0
 16 17  1  0  0  0  0
 17 18  1  0  0  0  0
 18 19  1  0  0  0  0
 19 20  1  0  0  0  0
  3 20  1  0  0  0  0
  3 12  1  0  0  0  0
 13 18  1  0  0  0  0
  5  9  1  0  0  0  0
  3  5  1  0  0  0  0
 13 21  1  1  0  0  0
  9 22  1  1  0  0  0
 16 23  1  1  0  0  0
 11 24  1  6  0  0  0
 10 25  1  1  0  0  0
  8  1  1  6  0  0  0
  1 26  2  0  0  0  0
 12 27  1  6  0  0  0
 18 28  1  6  0  0  0
 30 29  1  0  0  0  0
 32 30  1  0  0  0  0
 32 31  1  0  0  0  0
 34 32  1  0  0  0  0
 34 33  2  0  0  0  0
 34 24  1  0  0  0  0
 37 35  2  0  0  0  0
 38 36  1  0  0  0  0
 38 37  1  0  0  0  0
 40 38  2  0  0  0  0
 40 39  1  0  0  0  0
 37 25  1  0  0  0  0
M  END
>  <cdx:fragmentId>
9

$$$$
