991528.cdx
  Mrv1902 05222410262D          

 54 58  0  0  0  0            999 V2000
    5.4271   -8.5464    0.0000 C   0  0  0  0  0  0  0  0  0  0  0  0
    4.7126   -8.9589    0.0000 C   0  0  0  0  0  0  0  0  0  0  0  0
    3.9981   -8.5464    0.0000 C   0  0  0  0  0  0  0  0  0  0  0  0
    5.4271   -7.7214    0.0000 O   0  0  0  0  0  0  0  0  0  0  0  0
    6.1415   -8.9589    0.0000 O   0  0  0  0  0  0  0  0  0  0  0  0
    3.2837   -8.9589    0.0000 C   0  0  0  0  0  0  0  0  0  0  0  0
    2.5692   -8.5464    0.0000 C   0  0  0  0  0  0  0  0  0  0  0  0
    1.8547   -8.9589    0.0000 C   0  0  0  0  0  0  0  0  0  0  0  0
    1.8547   -9.7839    0.0000 C   0  0  0  0  0  0  0  0  0  0  0  0
    2.5692  -10.1964    0.0000 C   0  0  0  0  0  0  0  0  0  0  0  0
    3.2837   -9.7839    0.0000 C   0  0  0  0  0  0  0  0  0  0  0  0
    1.1402  -10.1964    0.0000 O   0  0  0  0  0  0  0  0  0  0  0  0
    1.1402   -8.5464    0.0000 O   0  0  0  0  0  0  0  0  0  0  0  0
    7.5705   -7.3089    0.0000 O   0  0  0  0  0  0  0  0  0  0  0  0
    6.8560   -7.7214    0.0000 C   0  0  1  0  0  0  0  0  0  0  0  0
    6.8560   -8.5464    0.0000 C   0  0  2  0  0  0  0  0  0  0  0  0
    7.5705   -8.9589    0.0000 C   0  0  1  0  0  0  0  0  0  0  0  0
    8.2850   -8.5464    0.0000 C   0  0  2  0  0  0  0  0  0  0  0  0
    8.2850   -7.7214    0.0000 C   0  0  2  0  0  0  0  0  0  0  0  0
    6.1415   -7.3089    0.0000 C   0  0  0  0  0  0  0  0  0  0  0  0
    6.1415   -6.4839    0.0000 O   0  0  0  0  0  0  0  0  0  0  0  0
    5.4271   -5.2464    0.0000 O   0  0  0  0  0  0  0  0  0  0  0  0
    5.4271   -6.0714    0.0000 C   0  0  2  0  0  0  0  0  0  0  0  0
    4.7126   -6.4839    0.0000 C   0  0  1  0  0  0  0  0  0  0  0  0
    3.9981   -6.0714    0.0000 C   0  0  2  0  0  0  0  0  0  0  0  0
    3.9981   -5.2464    0.0000 C   0  0  1  0  0  0  0  0  0  0  0  0
    4.7126   -4.8339    0.0000 C   0  0  1  0  0  0  0  0  0  0  0  0
    3.2837   -4.8339    0.0000 O   0  0  0  0  0  0  0  0  0  0  0  0
    3.2837   -6.4839    0.0000 O   0  0  0  0  0  0  0  0  0  0  0  0
    4.7126   -7.3089    0.0000 O   0  0  0  0  0  0  0  0  0  0  0  0
    8.9994   -8.9589    0.0000 O   0  0  0  0  0  0  0  0  0  0  0  0
    7.5705   -9.7839    0.0000 O   0  0  0  0  0  0  0  0  0  0  0  0
    8.9994   -7.3089    0.0000 O   0  0  0  0  0  0  0  0  0  0  0  0
    9.7139   -7.7214    0.0000 C   0  0  0  0  0  0  0  0  0  0  0  0
   10.4284   -7.3089    0.0000 C   0  0  0  0  0  0  0  0  0  0  0  0
   11.1428   -7.7214    0.0000 C   0  0  0  0  0  0  0  0  0  0  0  0
   11.8573   -7.3089    0.0000 C   0  0  0  0  0  0  0  0  0  0  0  0
   12.5718   -7.7214    0.0000 C   0  0  0  0  0  0  0  0  0  0  0  0
   12.5718   -8.5464    0.0000 C   0  0  0  0  0  0  0  0  0  0  0  0
   11.8573   -8.9589    0.0000 C   0  0  0  0  0  0  0  0  0  0  0  0
   11.1428   -8.5464    0.0000 C   0  0  0  0  0  0  0  0  0  0  0  0
   13.2863   -8.9589    0.0000 O   0  0  0  0  0  0  0  0  0  0  0  0
   13.2863   -7.3089    0.0000 O   0  0  0  0  0  0  0  0  0  0  0  0
    4.7126   -4.0089    0.0000 C   0  0  0  0  0  0  0  0  0  0  0  0
    3.9981   -3.5964    0.0000 O   0  0  0  0  0  0  0  0  0  0  0  0
    6.9871  -10.3673    0.0000 C   0  0  2  0  0  0  0  0  0  0  0  0
    6.1723  -10.2382    0.0000 C   0  0  0  0  0  0  0  0  0  0  0  0
    5.7977  -10.9733    0.0000 C   0  0  0  0  0  0  0  0  0  0  0  0
    6.3811  -11.5567    0.0000 C   0  0  2  0  0  0  0  0  0  0  0  0
    7.1162  -11.1821    0.0000 C   0  0  1  0  0  0  0  0  0  0  0  0
    7.8513  -11.5567    0.0000 O   0  0  0  0  0  0  0  0  0  0  0  0
    6.2520  -12.3715    0.0000 O   0  0  0  0  0  0  0  0  0  0  0  0
    5.6666  -11.9692    0.0000 C   0  0  0  0  0  0  0  0  0  0  0  0
    4.9522  -11.5567    0.0000 O   0  0  0  0  0  0  0  0  0  0  0  0
  1  2  1  0  0  0  0
  2  3  2  0  0  0  0
  1  4  2  0  0  0  0
  1  5  1  0  0  0  0
  6  7  1  0  0  0  0
  7  8  2  0  0  0  0
  8  9  1  0  0  0  0
  9 10  2  0  0  0  0
 10 11  1  0  0  0  0
  6 11  2  0  0  0  0
  9 12  1  0  0  0  0
  8 13  1  0  0  0  0
  3  6  1  0  0  0  0
 14 15  1  0  0  0  0
 15 16  1  0  0  0  0
 16 17  1  0  0  0  0
 17 18  1  0  0  0  0
 18 19  1  0  0  0  0
 14 19  1  0  0  0  0
 22 23  1  0  0  0  0
 23 24  1  0  0  0  0
 24 25  1  0  0  0  0
 25 26  1  0  0  0  0
 26 27  1  0  0  0  0
 22 27  1  0  0  0  0
 26 28  1  6  0  0  0
 25 29  1  1  0  0  0
 24 30  1  6  0  0  0
 23 21  1  1  0  0  0
 20 21  1  0  0  0  0
 15 20  1  1  0  0  0
 18 31  1  6  0  0  0
 17 32  1  1  0  0  0
 34 35  1  0  0  0  0
 33 34  1  0  0  0  0
 36 37  1  0  0  0  0
 37 38  2  0  0  0  0
 38 39  1  0  0  0  0
 39 40  2  0  0  0  0
 40 41  1  0  0  0  0
 36 41  2  0  0  0  0
 39 42  1  0  0  0  0
 38 43  1  0  0  0  0
 35 36  1  0  0  0  0
 19 33  1  1  0  0  0
 16  5  1  6  0  0  0
 27 44  1  1  0  0  0
 44 45  1  0  0  0  0
 46 32  1  1  0  0  0
 46 47  1  0  0  0  0
 47 48  1  0  0  0  0
 48 49  1  0  0  0  0
 49 50  1  0  0  0  0
 50 46  1  0  0  0  0
 50 51  1  6  0  0  0
 49 52  1  6  0  0  0
 49 53  1  1  0  0  0
 53 54  1  0  0  0  0
M  END
>  <cdx:groupId>
173351

>  <cdx:fragmentId>
173264

$$$$
