91588.cdx
  Mrv1902 05222410242D          

 34 37  0  0  0  0            999 V2000
    9.7701   -7.9876    0.0000 O   0  0  0  0  0  0  0  0  0  0  0  0
    8.3411   -7.1626    0.0000 O   0  0  0  0  0  0  0  0  0  0  0  0
    6.1977  -11.7001    0.0000 O   0  0  0  0  0  0  0  0  0  0  0  0
    4.7688  -11.7001    0.0000 O   0  0  0  0  0  0  0  0  0  0  0  0
    3.3398  -10.8751    0.0000 O   0  0  0  0  0  0  0  0  0  0  0  0
    3.3398   -9.2251    0.0000 O   0  0  0  0  0  0  0  0  0  0  0  0
    9.0556   -9.2251    0.0000 C   0  0  0  0  0  0  0  0  0  0  0  0
    9.0556   -8.4001    0.0000 C   0  0  0  0  0  0  0  0  0  0  0  0
    8.3411   -7.9876    0.0000 C   0  0  0  0  0  0  0  0  0  0  0  0
    7.6267   -8.4001    0.0000 C   0  0  0  0  0  0  0  0  0  0  0  0
    7.6267  -10.8751    0.0000 O   0  0  0  0  0  0  0  0  0  0  0  0
    8.3411   -9.6376    0.0000 C   0  0  0  0  0  0  0  0  0  0  0  0
    7.6267   -9.2251    0.0000 C   0  0  0  0  0  0  0  0  0  0  0  0
    6.1977  -10.8751    0.0000 C   0  0  0  0  0  0  0  0  0  0  0  0
    6.9122  -10.4626    0.0000 C   0  0  0  0  0  0  0  0  0  0  0  0
    6.9122   -9.6376    0.0000 C   0  0  0  0  0  0  0  0  0  0  0  0
    6.1977   -9.2251    0.0000 O   0  0  0  0  0  0  0  0  0  0  0  0
    4.7688  -10.8751    0.0000 C   0  0  0  0  0  0  0  0  0  0  0  0
    5.4832  -10.4626    0.0000 C   0  0  0  0  0  0  0  0  0  0  0  0
    5.4832   -9.6376    0.0000 C   0  0  0  0  0  0  0  0  0  0  0  0
    4.7688   -9.2251    0.0000 C   0  0  0  0  0  0  0  0  0  0  0  0
    4.0543   -9.6376    0.0000 C   0  0  0  0  0  0  0  0  0  0  0  0
    4.0543  -10.4626    0.0000 C   0  0  0  0  0  0  0  0  0  0  0  0
    7.6267  -11.7001    0.0000 C   0  0  0  0  0  0  0  0  0  0  0  0
    6.9122  -12.1126    0.0000 O   0  0  0  0  0  0  0  0  0  0  0  0
    6.9122  -12.9376    0.0000 C   0  0  0  0  0  0  0  0  0  0  0  0
    7.6267  -13.3501    0.0000 C   0  0  0  0  0  0  0  0  0  0  0  0
    8.3411  -12.9376    0.0000 C   0  0  0  0  0  0  0  0  0  0  0  0
    8.3411  -12.1126    0.0000 C   0  0  0  0  0  0  0  0  0  0  0  0
    6.1977  -13.3501    0.0000 C   0  0  0  0  0  0  0  0  0  0  0  0
    9.0556  -11.7001    0.0000 O   0  0  0  0  0  0  0  0  0  0  0  0
    9.0556  -13.3501    0.0000 O   0  0  0  0  0  0  0  0  0  0  0  0
    7.6267  -14.1751    0.0000 O   0  0  0  0  0  0  0  0  0  0  0  0
    6.1977  -14.1751    0.0000 O   0  0  0  0  0  0  0  0  0  0  0  0
  8  1  1  0  0  0  0
  9  2  1  0  0  0  0
 14  3  2  0  0  0  0
 18  4  1  0  0  0  0
 23  5  1  0  0  0  0
 22  6  1  0  0  0  0
  7 12  2  0  0  0  0
  8  7  1  0  0  0  0
  9  8  2  0  0  0  0
 10  9  1  0  0  0  0
 13 10  2  0  0  0  0
 11 15  1  0  0  0  0
 13 12  1  0  0  0  0
 16 13  1  0  0  0  0
 14 19  1  0  0  0  0
 15 14  1  0  0  0  0
 16 15  2  0  0  0  0
 17 16  1  0  0  0  0
 20 17  1  0  0  0  0
 18 23  2  0  0  0  0
 19 18  1  0  0  0  0
 20 19  2  0  0  0  0
 21 20  1  0  0  0  0
 22 21  2  0  0  0  0
 23 22  1  0  0  0  0
 11 24  1  0  0  0  0
 24 25  1  0  0  0  0
 25 26  1  0  0  0  0
 26 27  1  0  0  0  0
 27 28  1  0  0  0  0
 28 29  1  0  0  0  0
 29 24  1  0  0  0  0
 26 30  1  0  0  0  0
 29 31  1  0  0  0  0
 28 32  1  0  0  0  0
 27 33  1  0  0  0  0
 30 34  1  0  0  0  0
M  END
>  <cdx:fragmentId>
5

$$$$
