99153.cdx
  Mrv1902 05222410272D          

 44 48  0  0  0  0            999 V2000
    4.8037   -8.0850    0.0000 C   0  0  0  0  0  0  0  0  0  0  0  0
    4.8037   -8.9100    0.0000 C   0  0  0  0  0  0  0  0  0  0  0  0
    5.5181   -9.3225    0.0000 C   0  0  0  0  0  0  0  0  0  0  0  0
    6.2326   -8.9100    0.0000 C   0  0  0  0  0  0  0  0  0  0  0  0
    6.2326   -8.0850    0.0000 C   0  0  0  0  0  0  0  0  0  0  0  0
    5.5181   -7.6725    0.0000 C   0  0  0  0  0  0  0  0  0  0  0  0
    6.9471   -9.3225    0.0000 C   0  0  0  0  0  0  0  0  0  0  0  0
    7.6616   -8.9100    0.0000 C   0  0  2  0  0  0  0  0  0  0  0  0
    7.6616   -8.0850    0.0000 C   0  0  2  0  0  0  0  0  0  0  0  0
    6.9471   -7.6725    0.0000 O   0  0  0  0  0  0  0  0  0  0  0  0
    8.3760   -9.3225    0.0000 O   0  0  0  0  0  0  0  0  0  0  0  0
    9.0905   -8.0850    0.0000 C   0  0  0  0  0  0  0  0  0  0  0  0
    8.3760   -7.6725    0.0000 C   0  0  0  0  0  0  0  0  0  0  0  0
    9.8050   -7.6725    0.0000 C   0  0  0  0  0  0  0  0  0  0  0  0
    9.8050   -6.8475    0.0000 C   0  0  0  0  0  0  0  0  0  0  0  0
    9.0905   -6.4350    0.0000 C   0  0  0  0  0  0  0  0  0  0  0  0
    8.3760   -6.8475    0.0000 C   0  0  0  0  0  0  0  0  0  0  0  0
    6.9471   -6.8475    0.0000 C   0  0  0  0  0  0  0  0  0  0  0  0
    6.2326   -6.4350    0.0000 C   0  0  0  0  0  0  0  0  0  0  0  0
    5.5181   -6.8475    0.0000 C   0  0  0  0  0  0  0  0  0  0  0  0
    7.6616   -6.4350    0.0000 C   0  0  0  0  0  0  0  0  0  0  0  0
    7.6616   -5.6100    0.0000 C   0  0  0  0  0  0  0  0  0  0  0  0
    6.9471   -5.1975    0.0000 C   0  0  0  0  0  0  0  0  0  0  0  0
    6.2326   -5.6100    0.0000 C   0  0  0  0  0  0  0  0  0  0  0  0
    5.5181   -5.1975    0.0000 O   0  0  0  0  0  0  0  0  0  0  0  0
    4.8037   -5.6100    0.0000 C   0  0  0  0  0  0  0  0  0  0  0  0
    4.8037   -6.4350    0.0000 C   0  0  0  0  0  0  0  0  0  0  0  0
    5.5181  -10.1475    0.0000 O   0  0  0  0  0  0  0  0  0  0  0  0
    6.9471  -10.1475    0.0000 O   0  0  0  0  0  0  0  0  0  0  0  0
    6.9471   -4.3725    0.0000 O   0  0  0  0  0  0  0  0  0  0  0  0
    8.3760   -5.1975    0.0000 O   0  0  0  0  0  0  0  0  0  0  0  0
    4.0892   -5.1975    0.0000 O   0  0  0  0  0  0  0  0  0  0  0  0
    4.0892   -7.6725    0.0000 O   0  0  0  0  0  0  0  0  0  0  0  0
   10.5194   -6.4350    0.0000 O   0  0  0  0  0  0  0  0  0  0  0  0
    7.6568  -11.3716    0.0000 C   0  0  1  0  0  0  0  0  0  0  0  0
    8.3697  -11.7867    0.0000 C   0  0  1  0  0  0  0  0  0  0  0  0
    9.0857  -11.3768    0.0000 C   0  0  2  0  0  0  0  0  0  0  0  0
    9.0887  -10.5518    0.0000 C   0  0  2  0  0  0  0  0  0  0  0  0
    8.3758  -10.1367    0.0000 C   0  0  1  0  0  0  0  0  0  0  0  0
    7.6598  -10.5466    0.0000 O   0  0  0  0  0  0  0  0  0  0  0  0
    8.3667  -12.6117    0.0000 O   0  0  0  0  0  0  0  0  0  0  0  0
    6.9408  -11.7814    0.0000 C   0  0  0  0  0  0  0  0  0  0  0  0
    9.7987  -11.7920    0.0000 O   0  0  0  0  0  0  0  0  0  0  0  0
    9.8047  -10.1420    0.0000 O   0  0  0  0  0  0  0  0  0  0  0  0
  1  2  2  0  0  0  0
  2  3  1  0  0  0  0
  3  4  2  0  0  0  0
  4  5  1  0  0  0  0
  5  6  2  0  0  0  0
  6  1  1  0  0  0  0
  4  7  1  0  0  0  0
  7  8  1  0  0  0  0
  8  9  1  0  0  0  0
  9 10  1  0  0  0  0
 10  5  1  0  0  0  0
  8 11  1  6  0  0  0
 12 13  2  0  0  0  0
  9 13  1  6  0  0  0
 12 14  1  0  0  0  0
 14 15  2  0  0  0  0
 15 16  1  0  0  0  0
 16 17  2  0  0  0  0
 17 13  1  0  0  0  0
 18 19  2  0  0  0  0
 19 20  1  0  0  0  0
 20  6  1  0  0  0  0
 18 21  1  0  0  0  0
 21 22  2  0  0  0  0
 22 23  1  0  0  0  0
 23 24  2  0  0  0  0
 24 19  1  0  0  0  0
 25 26  1  0  0  0  0
 26 27  1  0  0  0  0
 27 20  1  0  0  0  0
  3 28  1  0  0  0  0
 29  7  2  0  0  0  0
 23 30  1  0  0  0  0
 22 31  1  0  0  0  0
 26 32  2  0  0  0  0
  1 33  1  0  0  0  0
 15 34  1  0  0  0  0
 35 36  1  0  0  0  0
 36 37  1  0  0  0  0
 37 38  1  0  0  0  0
 38 39  1  0  0  0  0
 39 40  1  0  0  0  0
 40 35  1  0  0  0  0
 36 41  1  1  0  0  0
 35 42  1  6  0  0  0
 37 43  1  6  0  0  0
 38 44  1  6  0  0  0
 39 11  1  1  0  0  0
M  END
>  <cdx:fragmentId>
5

$$$$
