91552.cdx
  Mrv1902 05222410222D          

 26 28  0  0  0  0            999 V2000
    3.3531  -10.0639    0.0000 C   0  0  0  0  0  0  0  0  0  0  0  0
    3.3531  -10.8889    0.0000 C   0  0  0  0  0  0  0  0  0  0  0  0
    4.0675  -11.3014    0.0000 O   0  0  0  0  0  0  0  0  0  0  0  0
    4.7820  -10.8889    0.0000 C   0  0  0  0  0  0  0  0  0  0  0  0
    4.7820  -10.0639    0.0000 C   0  0  0  0  0  0  0  0  0  0  0  0
    4.0675   -9.6514    0.0000 O   0  0  0  0  0  0  0  0  0  0  0  0
    5.4965  -11.3014    0.0000 C   0  0  0  0  0  0  0  0  0  0  0  0
    6.2109  -10.8889    0.0000 C   0  0  0  0  0  0  0  0  0  0  0  0
    6.2109  -10.0639    0.0000 C   0  0  0  0  0  0  0  0  0  0  0  0
    5.4965   -9.6514    0.0000 C   0  0  0  0  0  0  0  0  0  0  0  0
    6.9254  -11.3014    0.0000 C   0  0  0  0  0  0  0  0  0  0  0  0
    7.6399  -10.8889    0.0000 C   0  0  0  0  0  0  0  0  0  0  0  0
    7.6399  -10.0639    0.0000 C   0  0  0  0  0  0  0  0  0  0  0  0
    6.9254   -9.6514    0.0000 O   0  0  0  0  0  0  0  0  0  0  0  0
    8.3544  -11.3014    0.0000 O   0  0  0  0  0  0  0  0  0  0  0  0
    9.0688  -10.8889    0.0000 C   0  0  0  0  0  0  0  0  0  0  0  0
    9.0688  -10.0639    0.0000 C   0  0  0  0  0  0  0  0  0  0  0  0
    8.3544   -9.6514    0.0000 C   0  0  0  0  0  0  0  0  0  0  0  0
    9.7833   -9.6514    0.0000 C   0  0  0  0  0  0  0  0  0  0  0  0
    9.7833   -8.8264    0.0000 C   0  0  0  0  0  0  0  0  0  0  0  0
    9.0688   -8.4139    0.0000 C   0  0  0  0  0  0  0  0  0  0  0  0
    8.3544   -8.8264    0.0000 C   0  0  0  0  0  0  0  0  0  0  0  0
    5.4965  -12.1264    0.0000 O   0  0  0  0  0  0  0  0  0  0  0  0
    6.9254  -12.1264    0.0000 O   0  0  0  0  0  0  0  0  0  0  0  0
   10.4978   -8.4139    0.0000 O   0  0  0  0  0  0  0  0  0  0  0  0
    9.0688   -7.5889    0.0000 O   0  0  0  0  0  0  0  0  0  0  0  0
  2  3  1  0  0  0  0
  3  4  1  0  0  0  0
  4  5  2  0  0  0  0
  5  6  1  0  0  0  0
  6  1  1  0  0  0  0
  4  7  1  0  0  0  0
  7  8  2  0  0  0  0
  8  9  1  0  0  0  0
  9 10  2  0  0  0  0
 10  5  1  0  0  0  0
  8 11  1  0  0  0  0
 11 12  1  0  0  0  0
 12 13  2  0  0  0  0
 13 14  1  0  0  0  0
 14  9  1  0  0  0  0
 12 15  1  0  0  0  0
 15 16  1  0  0  0  0
 17 18  2  0  0  0  0
 18 13  1  0  0  0  0
 17 19  1  0  0  0  0
 19 20  2  0  0  0  0
 20 21  1  0  0  0  0
 21 22  2  0  0  0  0
 22 18  1  0  0  0  0
  7 23  1  0  0  0  0
 24 11  2  0  0  0  0
 20 25  1  0  0  0  0
 21 26  1  0  0  0  0
M  END
>  <cdx:fragmentId>
5

$$$$
