91510.cdx
  Mrv1902 05222410282D          

 18 20  0  0  0  0            999 V2000
    4.5768   -8.6751    0.0000 C   0  0  0  0  0  0  0  0  0  0  0  0
    4.5768   -9.5001    0.0000 C   0  0  0  0  0  0  0  0  0  0  0  0
    5.2913   -9.9126    0.0000 C   0  0  0  0  0  0  0  0  0  0  0  0
    6.0057   -9.5001    0.0000 C   0  0  1  0  0  0  0  0  0  0  0  0
    6.0057   -8.6751    0.0000 C   0  0  2  0  0  0  0  0  0  0  0  0
    5.2913   -8.2626    0.0000 C   0  0  0  0  0  0  0  0  0  0  0  0
    6.7202   -9.9126    0.0000 C   0  0  0  0  0  0  0  0  0  0  0  0
    7.4347   -9.5001    0.0000 C   0  0  0  0  0  0  0  0  0  0  0  0
    7.4347   -8.6751    0.0000 C   0  0  1  0  0  0  0  0  0  0  0  0
    6.7202   -8.2626    0.0000 C   0  0  0  0  0  0  0  0  0  0  0  0
    8.2193   -9.7551    0.0000 C   0  0  1  0  0  0  0  0  0  0  0  0
    8.7042   -9.0876    0.0000 C   0  0  0  0  0  0  0  0  0  0  0  0
    8.2193   -8.4202    0.0000 O   0  0  0  0  0  0  0  0  0  0  0  0
    6.0057   -7.8501    0.0000 C   0  0  0  0  0  0  0  0  0  0  0  0
    8.4742  -10.5397    0.0000 C   0  0  0  0  0  0  0  0  0  0  0  0
    9.5292   -9.0876    0.0000 O   0  0  0  0  0  0  0  0  0  0  0  0
    5.2913  -10.7376    0.0000 C   0  0  0  0  0  0  0  0  0  0  0  0
    6.0057  -10.3251    0.0000 H   0  0  0  0  0  0  0  0  0  0  0  0
  1  2  1  0  0  0  0
  2  3  1  0  0  0  0
  3  4  1  0  0  0  0
  4  5  1  0  0  0  0
  5  6  1  0  0  0  0
  6  1  1  0  0  0  0
  4  7  1  0  0  0  0
  7  8  1  0  0  0  0
  8  9  1  0  0  0  0
  9 10  1  0  0  0  0
 10  5  1  0  0  0  0
  8 11  1  0  0  0  0
 11 12  1  0  0  0  0
 12 13  1  0  0  0  0
  9 13  1  1  0  0  0
  5 14  1  1  0  0  0
 11 15  1  1  0  0  0
 12 16  2  0  0  0  0
  3 17  2  0  0  0  0
  4 18  1  6  0  0  0
M  END
>  <cdx:fragmentId>
5

$$$$
