99167.cdx
  Mrv1902 05222410192D          

 28 30  0  0  0  0            999 V2000
    4.3631   -7.6318    0.0000 C   0  0  0  0  0  0  0  0  0  0  0  0
    3.9506   -8.3462    0.0000 C   0  0  0  0  0  0  0  0  0  0  0  0
    4.3631   -9.0607    0.0000 C   0  0  0  0  0  0  0  0  0  0  0  0
    5.1881   -9.0607    0.0000 C   0  0  0  0  0  0  0  0  0  0  0  0
    5.6006   -8.3462    0.0000 C   0  0  0  0  0  0  0  0  0  0  0  0
    5.1881   -7.6318    0.0000 C   0  0  0  0  0  0  0  0  0  0  0  0
    3.1256   -8.3462    0.0000 O   0  0  0  0  0  0  0  0  0  0  0  0
    3.9506   -9.7752    0.0000 O   0  0  0  0  0  0  0  0  0  0  0  0
    4.3631  -10.4897    0.0000 C   0  0  0  0  0  0  0  0  0  0  0  0
    6.4256   -8.3462    0.0000 C   0  0  1  0  0  0  0  0  0  0  0  0
    6.9106   -9.0137    0.0000 O   0  0  0  0  0  0  0  0  0  0  0  0
    7.6952   -8.7587    0.0000 C   0  0  0  0  0  0  0  0  0  0  0  0
    7.6952   -7.9337    0.0000 C   0  0  0  0  0  0  0  0  0  0  0  0
    6.9106   -7.6788    0.0000 C   0  0  2  0  0  0  0  0  0  0  0  0
    8.4097   -9.1712    0.0000 C   0  0  0  0  0  0  0  0  0  0  0  0
    9.1241   -8.7587    0.0000 C   0  0  0  0  0  0  0  0  0  0  0  0
    9.1241   -7.9337    0.0000 C   0  0  0  0  0  0  0  0  0  0  0  0
    8.4097   -7.5212    0.0000 C   0  0  0  0  0  0  0  0  0  0  0  0
    6.6556   -6.8942    0.0000 C   0  0  0  0  0  0  0  0  0  0  0  0
    7.2077   -6.2811    0.0000 O   0  0  0  0  0  0  0  0  0  0  0  0
    8.4097   -9.9962    0.0000 O   0  0  0  0  0  0  0  0  0  0  0  0
    9.1241  -10.4087    0.0000 C   0  0  0  0  0  0  0  0  0  0  0  0
    9.8386   -7.5212    0.0000 C   0  0  2  0  0  0  0  0  0  0  0  0
   10.5531   -7.9337    0.0000 C   0  0  1  0  0  0  0  0  0  0  0  0
   11.2675   -7.5212    0.0000 C   0  0  0  0  0  0  0  0  0  0  0  0
   11.9820   -7.9337    0.0000 O   0  0  0  0  0  0  0  0  0  0  0  0
    9.8386   -6.6962    0.0000 O   0  0  0  0  0  0  0  0  0  0  0  0
   10.5531   -8.7587    0.0000 O   0  0  0  0  0  0  0  0  0  0  0  0
  1  2  2  0  0  0  0
  2  3  1  0  0  0  0
  3  4  2  0  0  0  0
  4  5  1  0  0  0  0
  5  6  2  0  0  0  0
  6  1  1  0  0  0  0
  2  7  1  0  0  0  0
  3  8  1  0  0  0  0
  8  9  1  0  0  0  0
 10  5  1  6  0  0  0
 10 11  1  0  0  0  0
 11 12  1  0  0  0  0
 12 13  2  0  0  0  0
 13 14  1  0  0  0  0
 14 10  1  0  0  0  0
 12 15  1  0  0  0  0
 15 16  2  0  0  0  0
 16 17  1  0  0  0  0
 17 18  2  0  0  0  0
 18 13  1  0  0  0  0
 14 19  1  1  0  0  0
 19 20  1  0  0  0  0
 15 21  1  0  0  0  0
 21 22  1  0  0  0  0
 17 23  1  0  0  0  0
 23 24  1  0  0  0  0
 24 25  1  0  0  0  0
 25 26  1  0  0  0  0
 23 27  1  1  0  0  0
 24 28  1  1  0  0  0
M  END
>  <cdx:fragmentId>
5

$$$$
