99164.cdx
  Mrv1902 05222410182D          

  9  9  0  0  0  0            999 V2000
    8.0679   -8.7928    0.0000 C   0  0  0  0  0  0  0  0  0  0  0  0
    7.3535   -9.2053    0.0000 C   0  0  0  0  0  0  0  0  0  0  0  0
    6.6390   -8.7928    0.0000 C   0  0  0  0  0  0  0  0  0  0  0  0
    5.9245   -9.2053    0.0000 C   0  0  0  0  0  0  0  0  0  0  0  0
    5.2100   -8.7928    0.0000 C   0  0  0  0  0  0  0  0  0  0  0  0
    5.2100   -7.9678    0.0000 C   0  0  0  0  0  0  0  0  0  0  0  0
    5.9245   -7.5553    0.0000 C   0  0  0  0  0  0  0  0  0  0  0  0
    6.6390   -7.9678    0.0000 C   0  0  0  0  0  0  0  0  0  0  0  0
    8.7824   -9.2053    0.0000 N   0  0  0  0  0  0  0  0  0  0  0  0
  1  2  1  0  0  0  0
  3  4  1  0  0  0  0
  4  5  2  0  0  0  0
  5  6  1  0  0  0  0
  6  7  2  0  0  0  0
  7  8  1  0  0  0  0
  3  8  2  0  0  0  0
  2  3  1  0  0  0  0
  1  9  1  0  0  0  0
M  END
>  <cdx:fragmentId>
9

$$$$
