99161.cdx
  Mrv1902 05222410202D          

 32 36  0  0  0  0            999 V2000
   10.1284   -8.8069    0.0000 C   0  0  0  0  0  0  0  0  0  0  0  0
    8.7648   -4.6598    0.0000 H   0  0  0  0  0  0  0  0  0  0  0  0
    7.3084   -7.1120    0.0000 H   0  0  0  0  0  0  0  0  0  0  0  0
    8.7257   -7.1345    0.0000 H   0  0  0  0  0  0  0  0  0  0  0  0
    9.4858   -4.2587    0.0000 C   0  0  0  0  0  0  0  0  0  0  0  0
   10.1414   -7.9820    0.0000 O   0  0  0  0  0  0  0  0  0  0  0  0
    8.7127   -7.9594    0.0000 O   0  0  0  0  0  0  0  0  0  0  0  0
    9.4336   -7.5583    0.0000 C   0  0  0  0  0  0  0  0  0  0  0  0
   10.1806   -5.5073    0.0000 O   0  0  0  0  0  0  0  0  0  0  0  0
   10.1675   -6.3322    0.0000 C   0  0  0  0  0  0  0  0  0  0  0  0
    9.4466   -6.7334    0.0000 C   0  0  0  0  0  0  0  0  0  0  0  0
    9.4727   -5.0836    0.0000 C   0  0  2  0  0  0  0  0  0  0  0  0
    7.3100   -6.2870    0.0000 C   0  0  2  0  0  0  0  0  0  0  0  0
    8.0178   -6.7108    0.0000 C   0  0  0  0  0  0  0  0  0  0  0  0
    8.7387   -6.3096    0.0000 C   0  0  1  0  0  0  0  0  0  0  0  0
    8.7518   -5.4847    0.0000 C   0  0  2  0  0  0  0  0  0  0  0  0
    8.0439   -5.0610    0.0000 C   0  0  0  0  0  0  0  0  0  0  0  0
    7.3230   -5.4621    0.0000 N   0  0  0  0  0  0  0  0  0  0  0  0
    6.5425   -5.1948    0.0000 C   0  0  0  0  0  0  0  0  0  0  0  0
    6.0471   -5.8545    0.0000 C   0  0  0  0  0  0  0  0  0  0  0  0
    6.5214   -6.5295    0.0000 C   0  0  2  0  0  0  0  0  0  0  0  0
    5.7329   -6.7720    0.0000 C   0  0  0  0  0  0  0  0  0  0  0  0
    5.7198   -7.5969    0.0000 N   0  0  0  0  0  0  0  0  0  0  0  0
    6.5003   -7.8642    0.0000 C   0  0  0  0  0  0  0  0  0  0  0  0
    6.9957   -7.2045    0.0000 C   0  0  0  0  0  0  0  0  0  0  0  0
    6.8239   -8.6231    0.0000 C   0  0  0  0  0  0  0  0  0  0  0  0
    7.6429   -8.7223    0.0000 C   0  0  0  0  0  0  0  0  0  0  0  0
    8.1383   -8.0626    0.0000 C   0  0  0  0  0  0  0  0  0  0  0  0
    7.8148   -7.3038    0.0000 C   0  0  0  0  0  0  0  0  0  0  0  0
    5.0732   -6.2766    0.0000 O   0  0  0  0  0  0  0  0  0  0  0  0
    5.0448   -8.0712    0.0000 C   0  0  0  0  0  0  0  0  0  0  0  0
    5.0432   -8.8962    0.0000 O   0  0  0  0  0  0  0  0  0  0  0  0
  6  1  1  0  0  0  0
 16  2  1  1  0  0  0
 13  3  1  6  0  0  0
 15  4  1  6  0  0  0
 12  5  1  6  0  0  0
 11  8  1  0  0  0  0
  8  6  1  0  0  0  0
  8  7  2  0  0  0  0
 11 15  1  0  0  0  0
 12 16  1  0  0  0  0
 12  9  1  0  0  0  0
 10  9  1  0  0  0  0
 11 10  2  0  0  0  0
 18 13  1  0  0  0  0
 21 13  1  0  0  0  0
 14 13  1  0  0  0  0
 15 14  1  0  0  0  0
 16 15  1  0  0  0  0
 17 16  1  0  0  0  0
 18 17  1  0  0  0  0
 19 18  1  0  0  0  0
 20 19  1  0  0  0  0
 21 20  1  6  0  0  0
 21 22  1  0  0  0  0
 22 23  1  0  0  0  0
 23 24  1  0  0  0  0
 24 25  2  0  0  0  0
 25 21  1  0  0  0  0
 24 26  1  0  0  0  0
 26 27  2  0  0  0  0
 27 28  1  0  0  0  0
 28 29  2  0  0  0  0
 29 25  1  0  0  0  0
 22 30  2  0  0  0  0
 23 31  1  0  0  0  0
 31 32  1  0  0  0  0
M  END
>  <cdx:fragmentId>
1978

$$$$
