99168.cdx
  Mrv1902 05222410282D          

 21 23  0  0  0  0            999 V2000
    9.1802   -8.5822    0.0000 N   0  0  0  0  0  0  0  0  0  0  0  0
    8.9253   -9.3668    0.0000 C   0  0  0  0  0  0  0  0  0  0  0  0
    8.1183   -9.5383    0.0000 C   0  0  0  0  0  0  0  0  0  0  0  0
    8.6282   -7.9691    0.0000 C   0  0  0  0  0  0  0  0  0  0  0  0
    6.4863   -8.1406    0.0000 C   0  0  0  0  0  0  0  0  0  0  0  0
    5.6794   -7.9691    0.0000 C   0  0  0  0  0  0  0  0  0  0  0  0
    5.1273   -8.5822    0.0000 C   0  0  0  0  0  0  0  0  0  0  0  0
    5.3823   -9.3668    0.0000 C   0  0  0  0  0  0  0  0  0  0  0  0
    6.1892   -9.5383    0.0000 C   0  0  0  0  0  0  0  0  0  0  0  0
    6.7413   -8.9252    0.0000 C   0  0  0  0  0  0  0  0  0  0  0  0
    7.5663   -8.9252    0.0000 C   0  0  0  0  0  0  0  0  0  0  0  0
    7.8212   -8.1406    0.0000 C   0  0  0  0  0  0  0  0  0  0  0  0
    7.1538   -7.6557    0.0000 N   0  0  0  0  0  0  0  0  0  0  0  0
    8.8831   -7.1845    0.0000 C   0  0  0  0  0  0  0  0  0  0  0  0
    9.6800   -6.9709    0.0000 C   0  0  0  0  0  0  0  0  0  0  0  0
    9.8935   -6.1740    0.0000 O   0  0  0  0  0  0  0  0  0  0  0  0
   10.6904   -5.9605    0.0000 C   0  0  0  0  0  0  0  0  0  0  0  0
    7.8634  -10.3229    0.0000 O   0  0  0  0  0  0  0  0  0  0  0  0
    8.4154  -10.9360    0.0000 C   0  0  0  0  0  0  0  0  0  0  0  0
    5.4244   -7.1845    0.0000 O   0  0  0  0  0  0  0  0  0  0  0  0
    5.9764   -6.5714    0.0000 C   0  0  0  0  0  0  0  0  0  0  0  0
  3 11  1  0  0  0  0
  4 12  1  0  0  0  0
  4  1  2  0  0  0  0
  2  1  1  0  0  0  0
  3  2  2  0  0  0  0
 10  5  2  0  0  0  0
 13  5  1  0  0  0  0
  6  5  1  0  0  0  0
  7  6  2  0  0  0  0
  8  7  1  0  0  0  0
  9  8  2  0  0  0  0
 10  9  1  0  0  0  0
 11 10  1  0  0  0  0
 12 11  2  0  0  0  0
 13 12  1  0  0  0  0
  4 14  1  0  0  0  0
 14 15  1  0  0  0  0
 15 16  1  0  0  0  0
 16 17  1  0  0  0  0
  3 18  1  0  0  0  0
 18 19  1  0  0  0  0
  6 20  1  0  0  0  0
 20 21  1  0  0  0  0
M  END
>  <cdx:fragmentId>
5

$$$$
