99169.cdx
  Mrv1902 05222410282D          

 46 51  0  0  0  0            999 V2000
   10.2580   -6.9575    0.0000 C   0  0  2  0  0  0  0  0  0  0  0  0
   10.2580   -7.7825    0.0000 C   0  0  0  0  0  0  0  0  0  0  0  0
   10.9725   -8.1950    0.0000 C   0  0  1  0  0  0  0  0  0  0  0  0
   11.6870   -7.7825    0.0000 C   0  0  1  0  0  0  0  0  0  0  0  0
   11.6870   -6.9575    0.0000 C   0  0  0  0  0  0  0  0  0  0  0  0
   10.9725   -6.5450    0.0000 C   0  0  1  0  0  0  0  0  0  0  0  0
   10.9725   -5.7200    0.0000 C   0  0  0  0  0  0  0  0  0  0  0  0
   12.2375   -6.5725    0.0000 O   0  0  0  0  0  0  0  0  0  0  0  0
   10.9725   -7.3700    0.0000 C   0  0  2  0  0  0  0  0  0  0  0  0
    9.5436   -6.5450    0.0000 O   0  0  0  0  0  0  0  0  0  0  0  0
   11.6870   -8.6075    0.0000 O   0  0  0  0  0  0  0  0  0  0  0  0
   10.3675   -8.1400    0.0000 C   0  0  0  0  0  0  0  0  0  0  0  0
   10.3675   -8.9650    0.0000 O   0  0  0  0  0  0  0  0  0  0  0  0
   12.2375   -7.3700    0.0000 C   0  0  0  0  0  0  0  0  0  0  0  0
    9.6490   -9.3705    0.0000 C   0  0  0  0  0  0  0  0  0  0  0  0
    8.9386   -8.9510    0.0000 O   0  0  0  0  0  0  0  0  0  0  0  0
    9.6409  -10.1954    0.0000 C   0  0  0  0  0  0  0  0  0  0  0  0
   10.3513  -10.6149    0.0000 C   0  0  0  0  0  0  0  0  0  0  0  0
   10.3432  -11.4399    0.0000 C   0  0  0  0  0  0  0  0  0  0  0  0
    9.6248  -11.8454    0.0000 C   0  0  0  0  0  0  0  0  0  0  0  0
    8.9144  -11.4259    0.0000 C   0  0  0  0  0  0  0  0  0  0  0  0
    8.9225  -10.6009    0.0000 C   0  0  0  0  0  0  0  0  0  0  0  0
    8.8291   -6.9575    0.0000 C   0  0  2  0  0  0  0  0  0  0  0  0
    8.1146   -6.5450    0.0000 O   0  0  0  0  0  0  0  0  0  0  0  0
    7.4001   -6.9575    0.0000 C   0  0  1  0  0  0  0  0  0  0  0  0
    7.4001   -7.7825    0.0000 C   0  0  2  0  0  0  0  0  0  0  0  0
    8.1146   -8.1950    0.0000 C   0  0  1  0  0  0  0  0  0  0  0  0
    8.8291   -7.7825    0.0000 C   0  0  1  0  0  0  0  0  0  0  0  0
    6.6857   -6.5450    0.0000 C   0  0  0  0  0  0  0  0  0  0  0  0
    8.1146   -9.0200    0.0000 O   0  0  0  0  0  0  0  0  0  0  0  0
    9.5436   -8.1950    0.0000 O   0  0  0  0  0  0  0  0  0  0  0  0
    6.6857   -8.1950    0.0000 O   0  0  0  0  0  0  0  0  0  0  0  0
    5.9712   -6.9575    0.0000 O   0  0  0  0  0  0  0  0  0  0  0  0
   10.9725   -9.0200    0.0000 H   0  0  0  0  0  0  0  0  0  0  0  0
   12.8209   -7.9534    0.0000 O   0  0  0  0  0  0  0  0  0  0  0  0
    5.2567   -6.5450    0.0000 C   0  0  2  0  0  0  0  0  0  0  0  0
    5.2567   -5.7200    0.0000 O   0  0  0  0  0  0  0  0  0  0  0  0
    4.5423   -5.3075    0.0000 C   0  0  1  0  0  0  0  0  0  0  0  0
    3.8278   -5.7200    0.0000 C   0  0  2  0  0  0  0  0  0  0  0  0
    3.8278   -6.5450    0.0000 C   0  0  1  0  0  0  0  0  0  0  0  0
    4.5423   -6.9575    0.0000 C   0  0  1  0  0  0  0  0  0  0  0  0
    4.5423   -4.4825    0.0000 C   0  0  0  0  0  0  0  0  0  0  0  0
    3.1133   -6.9575    0.0000 O   0  0  0  0  0  0  0  0  0  0  0  0
    4.5423   -7.7825    0.0000 O   0  0  0  0  0  0  0  0  0  0  0  0
    3.1133   -5.3075    0.0000 O   0  0  0  0  0  0  0  0  0  0  0  0
    3.8278   -4.0700    0.0000 O   0  0  0  0  0  0  0  0  0  0  0  0
  1  2  1  0  0  0  0
  2  3  1  0  0  0  0
  3  4  1  0  0  0  0
  4  5  1  0  0  0  0
  5  6  1  0  0  0  0
  6  1  1  0  0  0  0
  6  7  1  6  0  0  0
  6  8  1  0  0  0  0
  3  9  1  0  0  0  0
  1 10  1  1  0  0  0
  4 11  1  1  0  0  0
  9  1  1  0  0  0  0
  9 12  1  1  0  0  0
 12 13  1  0  0  0  0
  8 14  1  0  0  0  0
  9 14  1  0  0  0  0
 13 15  1  0  0  0  0
 15 16  2  0  0  0  0
 15 17  1  0  0  0  0
 17 18  2  0  0  0  0
 18 19  1  0  0  0  0
 19 20  2  0  0  0  0
 20 21  1  0  0  0  0
 21 22  2  0  0  0  0
 22 17  1  0  0  0  0
 23 10  1  1  0  0  0
 23 24  1  0  0  0  0
 24 25  1  0  0  0  0
 25 26  1  0  0  0  0
 26 27  1  0  0  0  0
 27 28  1  0  0  0  0
 28 23  1  0  0  0  0
 25 29  1  1  0  0  0
 27 30  1  1  0  0  0
 28 31  1  6  0  0  0
 26 32  1  6  0  0  0
 29 33  1  0  0  0  0
  3 34  1  1  0  0  0
 14 35  2  0  0  0  0
 36 33  1  1  0  0  0
 36 37  1  0  0  0  0
 37 38  1  0  0  0  0
 38 39  1  0  0  0  0
 39 40  1  0  0  0  0
 40 41  1  0  0  0  0
 41 36  1  0  0  0  0
 38 42  1  1  0  0  0
 40 43  1  1  0  0  0
 41 44  1  6  0  0  0
 39 45  1  6  0  0  0
 42 46  1  0  0  0  0
M  END
>  <cdx:fragmentId>
157

$$$$
