99166.cdx
  Mrv1902 05222410192D          

 18 17  0  0  0  0            999 V2000
   11.0790   -8.3111    0.0000 C   0  0  0  0  0  0  0  0  0  0  0  0
   10.3646   -8.7236    0.0000 C   0  0  0  0  0  0  0  0  0  0  0  0
    9.6501   -8.3111    0.0000 C   0  0  0  0  0  0  0  0  0  0  0  0
    8.9356   -8.7236    0.0000 C   0  0  0  0  0  0  0  0  0  0  0  0
    8.2211   -8.3111    0.0000 C   0  0  0  0  0  0  0  0  0  0  0  0
    7.5067   -8.7236    0.0000 C   0  0  0  0  0  0  0  0  0  0  0  0
    6.7922   -8.3111    0.0000 C   0  0  0  0  0  0  0  0  0  0  0  0
    6.0777   -8.7236    0.0000 C   0  0  0  0  0  0  0  0  0  0  0  0
    5.3633   -8.3111    0.0000 C   0  0  0  0  0  0  0  0  0  0  0  0
    4.6488   -8.7236    0.0000 C   0  0  0  0  0  0  0  0  0  0  0  0
    3.9343   -8.3111    0.0000 C   0  0  0  0  0  0  0  0  0  0  0  0
    3.2198   -8.7236    0.0000 C   0  0  0  0  0  0  0  0  0  0  0  0
    3.2198   -9.5486    0.0000 C   0  0  0  0  0  0  0  0  0  0  0  0
   11.0790   -7.4861    0.0000 D   0  0  0  0  0  0  0  0  0  0  0  0
   11.7935   -8.7236    0.0000 D   0  0  0  0  0  0  0  0  0  0  0  0
    2.5054   -8.3111    0.0000 C   0  0  0  0  0  0  0  0  0  0  0  0
    6.0777   -9.5486    0.0000 C   0  0  0  0  0  0  0  0  0  0  0  0
    8.9356   -9.5486    0.0000 C   0  0  0  0  0  0  0  0  0  0  0  0
  1  2  2  0  0  0  0
  2  3  1  0  0  0  0
  3  4  2  0  0  0  0
  4  5  1  0  0  0  0
  5  6  1  0  0  0  0
  6  7  1  0  0  0  0
  7  8  2  0  0  0  0
  8  9  1  0  0  0  0
  9 10  1  0  0  0  0
 10 11  1  0  0  0  0
 11 12  2  0  0  0  0
 12 13  1  0  0  0  0
  1 14  1  0  0  0  0
  1 15  1  0  0  0  0
 12 16  1  0  0  0  0
  8 17  1  0  0  0  0
  4 18  1  0  0  0  0
M  END
>  <cdx:fragmentId>
5

$$$$
