99162.cdx
  Mrv1902 05222410192D          

 31 35  0  0  0  0            999 V2000
    9.6989   -8.5441    0.0000 C   0  0  0  0  0  0  0  0  0  0  0  0
    8.3154   -4.4036    0.0000 H   0  0  0  0  0  0  0  0  0  0  0  0
    6.8708   -6.8628    0.0000 H   0  0  0  0  0  0  0  0  0  0  0  0
    8.2882   -6.8785    0.0000 H   0  0  0  0  0  0  0  0  0  0  0  0
    9.0344   -3.9990    0.0000 C   0  0  0  0  0  0  0  0  0  0  0  0
    9.7080   -7.7191    0.0000 O   0  0  0  0  0  0  0  0  0  0  0  0
    8.2791   -7.7034    0.0000 O   0  0  0  0  0  0  0  0  0  0  0  0
    8.9981   -7.2988    0.0000 C   0  0  0  0  0  0  0  0  0  0  0  0
    9.7352   -5.2443    0.0000 O   0  0  0  0  0  0  0  0  0  0  0  0
    9.7261   -6.0692    0.0000 C   0  0  0  0  0  0  0  0  0  0  0  0
    9.0072   -6.4738    0.0000 C   0  0  0  0  0  0  0  0  0  0  0  0
    9.0253   -4.8239    0.0000 C   0  0  2  0  0  0  0  0  0  0  0  0
    6.8684   -6.0378    0.0000 C   0  0  2  0  0  0  0  0  0  0  0  0
    7.5783   -6.4581    0.0000 C   0  0  0  0  0  0  0  0  0  0  0  0
    8.2973   -6.0535    0.0000 C   0  0  1  0  0  0  0  0  0  0  0  0
    8.3063   -5.2286    0.0000 C   0  0  2  0  0  0  0  0  0  0  0  0
    7.5964   -4.8082    0.0000 C   0  0  0  0  0  0  0  0  0  0  0  0
    6.8775   -5.2128    0.0000 N   0  0  0  0  0  0  0  0  0  0  0  0
    6.0957   -4.9493    0.0000 C   0  0  0  0  0  0  0  0  0  0  0  0
    5.6035   -5.6114    0.0000 C   0  0  0  0  0  0  0  0  0  0  0  0
    6.0810   -6.2841    0.0000 C   0  0  2  0  0  0  0  0  0  0  0  0
    5.2936   -6.5304    0.0000 C   0  0  0  0  0  0  0  0  0  0  0  0
    5.2846   -7.3553    0.0000 N   0  0  0  0  0  0  0  0  0  0  0  0
    6.0663   -7.6189    0.0000 C   0  0  0  0  0  0  0  0  0  0  0  0
    6.5586   -6.9568    0.0000 C   0  0  0  0  0  0  0  0  0  0  0  0
    6.3936   -8.3762    0.0000 C   0  0  0  0  0  0  0  0  0  0  0  0
    7.2131   -8.4715    0.0000 C   0  0  0  0  0  0  0  0  0  0  0  0
    7.7053   -7.8094    0.0000 C   0  0  0  0  0  0  0  0  0  0  0  0
    7.3781   -7.0521    0.0000 C   0  0  0  0  0  0  0  0  0  0  0  0
    4.6316   -6.0381    0.0000 O   0  0  0  0  0  0  0  0  0  0  0  0
    7.5692   -7.2831    0.0000 O   0  0  0  0  0  0  0  0  0  0  0  0
  6  1  1  0  0  0  0
 16  2  1  1  0  0  0
 13  3  1  6  0  0  0
 15  4  1  6  0  0  0
 12  5  1  6  0  0  0
 11  8  1  0  0  0  0
  8  6  1  0  0  0  0
  8  7  2  0  0  0  0
 11 15  1  0  0  0  0
 12 16  1  0  0  0  0
 12  9  1  0  0  0  0
 10  9  1  0  0  0  0
 11 10  2  0  0  0  0
 18 13  1  0  0  0  0
 21 13  1  0  0  0  0
 14 13  1  0  0  0  0
 15 14  1  0  0  0  0
 16 15  1  0  0  0  0
 17 16  1  0  0  0  0
 18 17  1  0  0  0  0
 19 18  1  0  0  0  0
 20 19  1  0  0  0  0
 21 20  1  6  0  0  0
 21 22  1  0  0  0  0
 22 23  1  0  0  0  0
 23 24  1  0  0  0  0
 24 25  2  0  0  0  0
 25 21  1  0  0  0  0
 24 26  1  0  0  0  0
 26 27  2  0  0  0  0
 27 28  1  0  0  0  0
 28 29  2  0  0  0  0
 29 25  1  0  0  0  0
 22 30  2  0  0  0  0
 14 31  1  0  0  0  0
M  END
>  <cdx:fragmentId>
1978

$$$$
