99160.cdx
  Mrv1902 05222410202D          

  7  7  0  0  0  0            999 V2000
    6.1283   -8.4753    0.0000 S   0  0  0  0  0  0  0  0  0  0  0  0
    6.7957   -7.9904    0.0000 N   0  0  0  0  0  0  0  0  0  0  0  0
    7.4632   -8.4753    0.0000 C   0  0  0  0  0  0  0  0  0  0  0  0
    7.2082   -9.2599    0.0000 C   0  0  0  0  0  0  0  0  0  0  0  0
    6.3832   -9.2599    0.0000 C   0  0  0  0  0  0  0  0  0  0  0  0
    8.2478   -8.2204    0.0000 O   0  0  0  0  0  0  0  0  0  0  0  0
    6.7957   -7.1654    0.0000 C   0  0  0  0  0  0  0  0  0  0  0  0
  1  2  1  0  0  0  0
  2  3  1  0  0  0  0
  3  4  1  0  0  0  0
  4  5  2  0  0  0  0
  1  5  1  0  0  0  0
  3  6  2  0  0  0  0
  2  7  1  0  0  0  0
M  END
>  <cdx:fragmentId>
5

$$$$
