99178.cdx
  Mrv1902 05222410262D          

 38 40  0  0  0  0            999 V2000
    2.2991  -10.8350    0.0000 O   0  0  0  0  0  0  0  0  0  0  0  0
    3.0135  -10.4225    0.0000 C   0  0  0  0  0  0  0  0  0  0  0  0
    3.7280  -10.8350    0.0000 C   0  0  2  0  0  0  0  0  0  0  0  0
    3.7280  -11.6600    0.0000 C   0  0  2  0  0  0  0  0  0  0  0  0
    4.4425  -12.0725    0.0000 C   0  0  1  0  0  0  0  0  0  0  0  0
    5.1569  -11.6600    0.0000 C   0  0  2  0  0  0  0  0  0  0  0  0
    5.1569  -10.8350    0.0000 C   0  0  1  0  0  0  0  0  0  0  0  0
    4.4425  -10.4225    0.0000 O   0  0  0  0  0  0  0  0  0  0  0  0
    4.4425  -12.8975    0.0000 O   0  0  0  0  0  0  0  0  0  0  0  0
    5.8714  -10.4225    0.0000 O   0  0  0  0  0  0  0  0  0  0  0  0
    3.0135  -12.0725    0.0000 O   0  0  0  0  0  0  0  0  0  0  0  0
    5.8714  -12.0725    0.0000 O   0  0  0  0  0  0  0  0  0  0  0  0
    5.8714   -9.5975    0.0000 C   0  0  0  0  0  0  0  0  0  0  0  0
    6.5859   -9.1850    0.0000 C   0  0  0  0  0  0  0  0  0  0  0  0
    6.5859   -8.3600    0.0000 C   0  0  0  0  0  0  0  0  0  0  0  0
    5.8714   -7.9475    0.0000 C   0  0  0  0  0  0  0  0  0  0  0  0
    5.1569   -8.3600    0.0000 C   0  0  0  0  0  0  0  0  0  0  0  0
    5.1569   -9.1850    0.0000 C   0  0  0  0  0  0  0  0  0  0  0  0
    7.3004   -9.5975    0.0000 O   0  0  0  0  0  0  0  0  0  0  0  0
    7.3004  -10.4225    0.0000 C   0  0  0  0  0  0  0  0  0  0  0  0
    5.8714   -7.1225    0.0000 C   0  0  1  0  0  0  0  0  0  0  0  0
    6.5859   -6.7100    0.0000 C   0  0  1  0  0  0  0  0  0  0  0  0
    5.1993   -6.7344    0.0000 O   0  0  0  0  0  0  0  0  0  0  0  0
    7.3004   -7.1225    0.0000 O   0  0  0  0  0  0  0  0  0  0  0  0
    8.0148   -6.7100    0.0000 C   0  0  0  0  0  0  0  0  0  0  0  0
    8.7293   -7.1225    0.0000 C   0  0  0  0  0  0  0  0  0  0  0  0
    9.4438   -6.7100    0.0000 C   0  0  0  0  0  0  0  0  0  0  0  0
    9.4438   -5.8850    0.0000 C   0  0  0  0  0  0  0  0  0  0  0  0
    8.7293   -5.4725    0.0000 C   0  0  0  0  0  0  0  0  0  0  0  0
    8.0148   -5.8850    0.0000 C   0  0  0  0  0  0  0  0  0  0  0  0
    8.7293   -7.9475    0.0000 O   0  0  0  0  0  0  0  0  0  0  0  0
    9.4438   -8.3600    0.0000 C   0  0  0  0  0  0  0  0  0  0  0  0
   10.1582   -5.4725    0.0000 C   0  0  0  0  0  0  0  0  0  0  0  0
   10.8727   -5.8850    0.0000 C   0  0  0  0  0  0  0  0  0  0  0  0
   11.5872   -5.4725    0.0000 C   0  0  0  0  0  0  0  0  0  0  0  0
   12.3017   -5.8850    0.0000 O   0  0  0  0  0  0  0  0  0  0  0  0
    6.5859   -5.8850    0.0000 C   0  0  0  0  0  0  0  0  0  0  0  0
    5.8610   -5.4665    0.0000 O   0  0  0  0  0  0  0  0  0  0  0  0
  1  2  1  0  0  0  0
  3  2  1  1  0  0  0
  3  4  1  0  0  0  0
  4  5  1  0  0  0  0
  5  6  1  0  0  0  0
  6  7  1  0  0  0  0
  7  8  1  0  0  0  0
  8  3  1  0  0  0  0
  5  9  1  1  0  0  0
  7 10  1  1  0  0  0
  4 11  1  6  0  0  0
  6 12  1  6  0  0  0
 10 13  1  0  0  0  0
 13 14  2  0  0  0  0
 14 15  1  0  0  0  0
 15 16  2  0  0  0  0
 16 17  1  0  0  0  0
 17 18  2  0  0  0  0
 18 13  1  0  0  0  0
 14 19  1  0  0  0  0
 19 20  1  0  0  0  0
 16 21  1  0  0  0  0
 21 22  1  0  0  0  0
 21 23  1  6  0  0  0
 22 24  1  0  0  0  0
 24 25  1  0  0  0  0
 25 26  2  0  0  0  0
 26 27  1  0  0  0  0
 27 28  2  0  0  0  0
 28 29  1  0  0  0  0
 29 30  2  0  0  0  0
 30 25  1  0  0  0  0
 26 31  1  0  0  0  0
 31 32  1  0  0  0  0
 28 33  1  0  0  0  0
 33 34  2  0  0  0  0
 34 35  1  0  0  0  0
 35 36  1  0  0  0  0
 22 37  1  6  0  0  0
 37 38  1  0  0  0  0
M  END
>  <cdx:fragmentId>
5

$$$$
