99177.cdx
  Mrv1902 05222410192D          

 49 52  0  0  0  0            999 V2000
    1.1462  -10.1475    0.0000 C   0  0  0  0  0  0  0  0  0  0  0  0
    1.1462  -10.9725    0.0000 C   0  0  0  0  0  0  0  0  0  0  0  0
    1.8606  -11.3850    0.0000 C   0  0  0  0  0  0  0  0  0  0  0  0
    2.5751  -10.9725    0.0000 C   0  0  0  0  0  0  0  0  0  0  0  0
    2.5751  -10.1475    0.0000 C   0  0  0  0  0  0  0  0  0  0  0  0
    1.8606   -9.7350    0.0000 C   0  0  0  0  0  0  0  0  0  0  0  0
    0.4317  -11.3850    0.0000 O   0  0  0  0  0  0  0  0  0  0  0  0
    1.8606  -12.2100    0.0000 O   0  0  0  0  0  0  0  0  0  0  0  0
    2.5751  -12.6225    0.0000 C   0  0  0  0  0  0  0  0  0  0  0  0
    3.2896   -9.7350    0.0000 C   0  0  0  0  0  0  0  0  0  0  0  0
    4.0041  -10.1475    0.0000 O   0  0  0  0  0  0  0  0  0  0  0  0
    3.2896   -8.9100    0.0000 O   0  0  0  0  0  0  0  0  0  0  0  0
    4.7185   -9.7350    0.0000 C   0  0  0  0  0  0  0  0  0  0  0  0
    5.4330  -10.1475    0.0000 C   0  0  2  0  0  0  0  0  0  0  0  0
    5.4330  -10.9725    0.0000 C   0  0  2  0  0  0  0  0  0  0  0  0
    6.1475  -11.3850    0.0000 C   0  0  1  0  0  0  0  0  0  0  0  0
    6.8619  -10.9725    0.0000 C   0  0  2  0  0  0  0  0  0  0  0  0
    6.8619  -10.1475    0.0000 C   0  0  1  0  0  0  0  0  0  0  0  0
    6.1475   -9.7350    0.0000 O   0  0  0  0  0  0  0  0  0  0  0  0
    6.1475  -12.2100    0.0000 O   0  0  0  0  0  0  0  0  0  0  0  0
    7.5764   -9.7350    0.0000 O   0  0  0  0  0  0  0  0  0  0  0  0
    4.7185  -11.3850    0.0000 O   0  0  0  0  0  0  0  0  0  0  0  0
    7.5764  -11.3850    0.0000 O   0  0  0  0  0  0  0  0  0  0  0  0
    7.5764   -8.9100    0.0000 C   0  0  0  0  0  0  0  0  0  0  0  0
    8.2909   -8.4975    0.0000 C   0  0  0  0  0  0  0  0  0  0  0  0
    8.2909   -7.6725    0.0000 C   0  0  0  0  0  0  0  0  0  0  0  0
    7.5764   -7.2600    0.0000 C   0  0  0  0  0  0  0  0  0  0  0  0
    6.8619   -7.6725    0.0000 C   0  0  0  0  0  0  0  0  0  0  0  0
    6.8619   -8.4975    0.0000 C   0  0  0  0  0  0  0  0  0  0  0  0
    9.0054   -8.9100    0.0000 O   0  0  0  0  0  0  0  0  0  0  0  0
    9.0054   -9.7350    0.0000 C   0  0  0  0  0  0  0  0  0  0  0  0
    7.5764   -6.4350    0.0000 C   0  0  1  0  0  0  0  0  0  0  0  0
    8.2909   -6.0225    0.0000 C   0  0  2  0  0  0  0  0  0  0  0  0
    6.9043   -6.0469    0.0000 O   0  0  0  0  0  0  0  0  0  0  0  0
    9.0054   -6.4350    0.0000 O   0  0  0  0  0  0  0  0  0  0  0  0
    9.7198   -6.0225    0.0000 C   0  0  0  0  0  0  0  0  0  0  0  0
   10.4343   -6.4350    0.0000 C   0  0  0  0  0  0  0  0  0  0  0  0
   11.1488   -6.0225    0.0000 C   0  0  0  0  0  0  0  0  0  0  0  0
   11.1488   -5.1975    0.0000 C   0  0  0  0  0  0  0  0  0  0  0  0
   10.4343   -4.7850    0.0000 C   0  0  0  0  0  0  0  0  0  0  0  0
    9.7198   -5.1975    0.0000 C   0  0  0  0  0  0  0  0  0  0  0  0
   10.4343   -7.2600    0.0000 O   0  0  0  0  0  0  0  0  0  0  0  0
   11.1488   -7.6725    0.0000 C   0  0  0  0  0  0  0  0  0  0  0  0
   11.8632   -4.7850    0.0000 C   0  0  0  0  0  0  0  0  0  0  0  0
   12.5777   -5.1975    0.0000 C   0  0  0  0  0  0  0  0  0  0  0  0
   13.2922   -4.7850    0.0000 C   0  0  0  0  0  0  0  0  0  0  0  0
   14.0067   -5.1975    0.0000 O   0  0  0  0  0  0  0  0  0  0  0  0
    8.2909   -5.1975    0.0000 C   0  0  0  0  0  0  0  0  0  0  0  0
    7.5660   -4.7790    0.0000 O   0  0  0  0  0  0  0  0  0  0  0  0
  1  2  2  0  0  0  0
  2  3  1  0  0  0  0
  3  4  2  0  0  0  0
  4  5  1  0  0  0  0
  5  6  2  0  0  0  0
  6  1  1  0  0  0  0
  2  7  1  0  0  0  0
  3  8  1  0  0  0  0
  8  9  1  0  0  0  0
  5 10  1  0  0  0  0
 10 11  1  0  0  0  0
 10 12  2  0  0  0  0
 11 13  1  0  0  0  0
 14 13  1  1  0  0  0
 14 15  1  0  0  0  0
 15 16  1  0  0  0  0
 16 17  1  0  0  0  0
 17 18  1  0  0  0  0
 18 19  1  0  0  0  0
 19 14  1  0  0  0  0
 16 20  1  1  0  0  0
 18 21  1  1  0  0  0
 15 22  1  6  0  0  0
 17 23  1  6  0  0  0
 21 24  1  0  0  0  0
 24 25  2  0  0  0  0
 25 26  1  0  0  0  0
 26 27  2  0  0  0  0
 27 28  1  0  0  0  0
 28 29  2  0  0  0  0
 29 24  1  0  0  0  0
 25 30  1  0  0  0  0
 30 31  1  0  0  0  0
 27 32  1  0  0  0  0
 32 33  1  0  0  0  0
 32 34  1  6  0  0  0
 33 35  1  0  0  0  0
 35 36  1  0  0  0  0
 36 37  2  0  0  0  0
 37 38  1  0  0  0  0
 38 39  2  0  0  0  0
 39 40  1  0  0  0  0
 40 41  2  0  0  0  0
 41 36  1  0  0  0  0
 37 42  1  0  0  0  0
 42 43  1  0  0  0  0
 39 44  1  0  0  0  0
 44 45  2  0  0  0  0
 45 46  1  0  0  0  0
 46 47  1  0  0  0  0
 33 48  1  1  0  0  0
 48 49  1  0  0  0  0
M  END
>  <cdx:fragmentId>
5

$$$$
