99179.cdx
  Mrv1902 05222410262D          

 36 39  0  0  0  0            999 V2000
    3.8406   -6.8205    0.0000 C   0  0  0  0  0  0  0  0  0  0  0  0
    3.4281   -7.5350    0.0000 C   0  0  0  0  0  0  0  0  0  0  0  0
    3.8406   -8.2495    0.0000 C   0  0  0  0  0  0  0  0  0  0  0  0
    4.6656   -8.2495    0.0000 C   0  0  0  0  0  0  0  0  0  0  0  0
    5.0781   -7.5350    0.0000 C   0  0  0  0  0  0  0  0  0  0  0  0
    4.6656   -6.8205    0.0000 C   0  0  0  0  0  0  0  0  0  0  0  0
    2.6031   -7.5350    0.0000 O   0  0  0  0  0  0  0  0  0  0  0  0
    3.4281   -8.9639    0.0000 O   0  0  0  0  0  0  0  0  0  0  0  0
    2.6031   -8.9639    0.0000 C   0  0  0  0  0  0  0  0  0  0  0  0
    5.9031   -7.5350    0.0000 C   0  0  0  0  0  0  0  0  0  0  0  0
    6.3881   -8.2024    0.0000 C   0  0  2  0  0  0  0  0  0  0  0  0
    7.1727   -7.9475    0.0000 C   0  0  0  0  0  0  0  0  0  0  0  0
    7.1727   -7.1225    0.0000 C   0  0  0  0  0  0  0  0  0  0  0  0
    6.3881   -6.8676    0.0000 O   0  0  0  0  0  0  0  0  0  0  0  0
    7.8872   -8.3600    0.0000 C   0  0  0  0  0  0  0  0  0  0  0  0
    8.6016   -7.9475    0.0000 C   0  0  0  0  0  0  0  0  0  0  0  0
    8.6016   -7.1225    0.0000 C   0  0  0  0  0  0  0  0  0  0  0  0
    7.8872   -6.7100    0.0000 C   0  0  0  0  0  0  0  0  0  0  0  0
    6.1331   -8.9871    0.0000 C   0  0  0  0  0  0  0  0  0  0  0  0
    5.3262   -9.1586    0.0000 O   0  0  0  0  0  0  0  0  0  0  0  0
    9.3161   -6.7100    0.0000 C   0  0  0  0  0  0  0  0  0  0  0  0
   10.0306   -7.1225    0.0000 C   0  0  0  0  0  0  0  0  0  0  0  0
   10.7450   -6.7100    0.0000 C   0  0  0  0  0  0  0  0  0  0  0  0
   11.4595   -7.1225    0.0000 O   0  0  0  0  0  0  0  0  0  0  0  0
    9.3161   -8.3600    0.0000 O   0  0  0  0  0  0  0  0  0  0  0  0
    8.5906  -10.4359    0.0000 C   0  0  2  0  0  0  0  0  0  0  0  0
    9.3035  -10.8511    0.0000 C   0  0  2  0  0  0  0  0  0  0  0  0
   10.0195  -10.4412    0.0000 C   0  0  1  0  0  0  0  0  0  0  0  0
   10.0226   -9.6163    0.0000 C   0  0  2  0  0  0  0  0  0  0  0  0
    9.3097   -9.2011    0.0000 C   0  0  1  0  0  0  0  0  0  0  0  0
    8.5937   -9.6109    0.0000 O   0  0  0  0  0  0  0  0  0  0  0  0
    7.8746  -10.8457    0.0000 C   0  0  0  0  0  0  0  0  0  0  0  0
   10.7324  -10.8564    0.0000 O   0  0  0  0  0  0  0  0  0  0  0  0
    9.3004  -11.6761    0.0000 O   0  0  0  0  0  0  0  0  0  0  0  0
   10.7386   -9.2064    0.0000 O   0  0  0  0  0  0  0  0  0  0  0  0
    7.1616  -10.4306    0.0000 O   0  0  0  0  0  0  0  0  0  0  0  0
  1  2  2  0  0  0  0
  2  3  1  0  0  0  0
  3  4  2  0  0  0  0
  4  5  1  0  0  0  0
  5  6  2  0  0  0  0
  6  1  1  0  0  0  0
  2  7  1  0  0  0  0
  3  8  1  0  0  0  0
  8  9  1  0  0  0  0
  5 10  1  6  0  0  0
 10 11  1  0  0  0  0
 11 12  1  0  0  0  0
 12 13  2  0  0  0  0
 13 14  1  0  0  0  0
 14 10  1  0  0  0  0
 12 15  1  0  0  0  0
 15 16  2  0  0  0  0
 16 17  1  0  0  0  0
 17 18  2  0  0  0  0
 18 13  1  0  0  0  0
 11 19  1  6  0  0  0
 19 20  1  0  0  0  0
 17 21  1  0  0  0  0
 21 22  1  0  0  0  0
 22 23  1  0  0  0  0
 23 24  1  0  0  0  0
 16 25  1  0  0  0  0
 26 27  1  0  0  0  0
 27 28  1  0  0  0  0
 28 29  1  0  0  0  0
 29 30  1  0  0  0  0
 30 31  1  0  0  0  0
 31 26  1  0  0  0  0
 26 32  1  1  0  0  0
 28 33  1  1  0  0  0
 27 34  1  6  0  0  0
 29 35  1  6  0  0  0
 32 36  1  0  0  0  0
 30 25  1  1  0  0  0
M  END
>  <cdx:fragmentId>
5

$$$$
