99185.cdx
  Mrv1902 05222410272D          

 18 17  0  0  0  0            999 V2000
    9.8068   -8.3135    0.0000 C   0  0  0  0  0  0  0  0  0  0  0  0
    9.0924   -8.7260    0.0000 C   0  0  0  0  0  0  0  0  0  0  0  0
    8.3779   -8.3135    0.0000 C   0  0  0  0  0  0  0  0  0  0  0  0
    7.6634   -8.7260    0.0000 C   0  0  0  0  0  0  0  0  0  0  0  0
    6.9489   -8.3135    0.0000 C   0  0  0  0  0  0  0  0  0  0  0  0
    6.2345   -8.7260    0.0000 C   0  0  0  0  0  0  0  0  0  0  0  0
    5.5200   -8.3135    0.0000 C   0  0  0  0  0  0  0  0  0  0  0  0
    4.8055   -8.7260    0.0000 C   0  0  0  0  0  0  0  0  0  0  0  0
    4.0771   -8.3387    0.0000 C   0  0  0  0  0  0  0  0  0  0  0  0
    4.0554   -7.5140    0.0000 C   0  0  0  0  0  0  0  0  0  0  0  0
    3.3960   -7.0181    0.0000 C   0  0  0  0  0  0  0  0  0  0  0  0
    2.6126   -7.2769    0.0000 C   0  0  0  0  0  0  0  0  0  0  0  0
    9.8068   -7.4885    0.0000 O   0  0  0  0  0  0  0  0  0  0  0  0
   10.5213   -8.7260    0.0000 N   0  0  0  0  0  0  0  0  0  0  0  0
   11.2358   -8.3135    0.0000 C   0  0  0  0  0  0  0  0  0  0  0  0
   11.9502   -8.7260    0.0000 C   0  0  0  0  0  0  0  0  0  0  0  0
   11.9502   -9.5510    0.0000 C   0  0  0  0  0  0  0  0  0  0  0  0
   12.6647   -8.3135    0.0000 C   0  0  0  0  0  0  0  0  0  0  0  0
  1  2  1  0  0  0  0
  2  3  2  0  0  0  0
  3  4  1  0  0  0  0
  4  5  2  0  0  0  0
  5  6  1  0  0  0  0
  6  7  1  0  0  0  0
  7  8  1  0  0  0  0
  8  9  2  0  0  0  0
  9 10  1  0  0  0  0
 10 11  2  0  0  0  0
 11 12  1  0  0  0  0
  1 13  2  0  0  0  0
  1 14  1  0  0  0  0
 15 16  1  0  0  0  0
 16 17  1  0  0  0  0
 18 16  1  0  0  0  0
 14 15  1  0  0  0  0
M  END
>  <cdx:fragmentId>
5

$$$$
