99184.cdx
  Mrv1902 05222410272D          

 47 50  0  0  0  0            999 V2000
    7.3612   -7.9063    0.0000 C   0  0  2  0  0  0  0  0  0  0  0  0
    7.3612   -8.7313    0.0000 C   0  0  2  0  0  0  0  0  0  0  0  0
    8.0756   -9.1438    0.0000 C   0  0  1  0  0  0  0  0  0  0  0  0
    8.7901   -8.7313    0.0000 C   0  0  2  0  0  0  0  0  0  0  0  0
    8.7901   -7.9063    0.0000 C   0  0  1  0  0  0  0  0  0  0  0  0
    8.0756   -7.4937    0.0000 O   0  0  0  0  0  0  0  0  0  0  0  0
    6.6467   -7.4937    0.0000 C   0  0  0  0  0  0  0  0  0  0  0  0
    9.5046   -7.4937    0.0000 O   0  0  0  0  0  0  0  0  0  0  0  0
    8.0756   -9.9688    0.0000 O   0  0  0  0  0  0  0  0  0  0  0  0
    6.6467   -9.1438    0.0000 O   0  0  0  0  0  0  0  0  0  0  0  0
    9.5046   -9.1438    0.0000 O   0  0  0  0  0  0  0  0  0  0  0  0
    5.9322   -7.9063    0.0000 O   0  0  0  0  0  0  0  0  0  0  0  0
   10.2191   -7.9063    0.0000 C   0  0  0  0  0  0  0  0  0  0  0  0
   10.9335   -7.4937    0.0000 C   0  0  0  0  0  0  0  0  0  0  0  0
   11.6480   -7.9063    0.0000 C   0  0  0  0  0  0  0  0  0  0  0  0
   11.6480   -8.7313    0.0000 C   0  0  0  0  0  0  0  0  0  0  0  0
   12.3625   -9.1438    0.0000 C   0  0  0  0  0  0  0  0  0  0  0  0
   13.0769   -8.7313    0.0000 C   0  0  0  0  0  0  0  0  0  0  0  0
   13.0769   -7.9063    0.0000 C   0  0  0  0  0  0  0  0  0  0  0  0
   12.3625   -7.4937    0.0000 C   0  0  0  0  0  0  0  0  0  0  0  0
   13.7914   -9.1438    0.0000 O   0  0  0  0  0  0  0  0  0  0  0  0
   13.7914   -7.4937    0.0000 O   0  0  0  0  0  0  0  0  0  0  0  0
    5.2178   -7.4937    0.0000 C   0  0  0  0  0  0  0  0  0  0  0  0
    4.5033   -7.9063    0.0000 C   0  0  0  0  0  0  0  0  0  0  0  0
    5.2178   -6.6688    0.0000 O   0  0  0  0  0  0  0  0  0  0  0  0
    3.7888   -7.4937    0.0000 C   0  0  0  0  0  0  0  0  0  0  0  0
    3.0744   -7.9062    0.0000 C   0  0  0  0  0  0  0  0  0  0  0  0
    2.3599   -7.4937    0.0000 C   0  0  0  0  0  0  0  0  0  0  0  0
    1.6454   -7.9063    0.0000 C   0  0  0  0  0  0  0  0  0  0  0  0
    1.6454   -8.7312    0.0000 C   0  0  0  0  0  0  0  0  0  0  0  0
    2.3599   -9.1437    0.0000 C   0  0  0  0  0  0  0  0  0  0  0  0
    3.0744   -8.7312    0.0000 C   0  0  0  0  0  0  0  0  0  0  0  0
    0.9309   -9.1437    0.0000 O   0  0  0  0  0  0  0  0  0  0  0  0
    0.9309   -7.4937    0.0000 O   0  0  0  0  0  0  0  0  0  0  0  0
    7.3612  -10.3812    0.0000 C   0  0  2  0  0  0  0  0  0  0  0  0
    6.6467   -9.9688    0.0000 O   0  0  0  0  0  0  0  0  0  0  0  0
    5.9322  -10.3812    0.0000 C   0  0  2  0  0  0  0  0  0  0  0  0
    5.9322  -11.2062    0.0000 C   0  0  1  0  0  0  0  0  0  0  0  0
    6.6467  -11.6187    0.0000 C   0  0  2  0  0  0  0  0  0  0  0  0
    7.3612  -11.2062    0.0000 C   0  0  1  0  0  0  0  0  0  0  0  0
    5.2178   -9.9688    0.0000 C   0  0  0  0  0  0  0  0  0  0  0  0
    6.6467  -12.4438    0.0000 O   0  0  0  0  0  0  0  0  0  0  0  0
    8.0756  -11.6187    0.0000 O   0  0  0  0  0  0  0  0  0  0  0  0
    5.2178  -11.6187    0.0000 O   0  0  0  0  0  0  0  0  0  0  0  0
   10.2191  -10.3812    0.0000 O   0  0  0  0  0  0  0  0  0  0  0  0
    8.7901  -10.3812    0.0000 C   0  0  0  0  0  0  0  0  0  0  0  0
    9.5046   -9.9688    0.0000 C   0  0  0  0  0  0  0  0  0  0  0  0
  1  2  1  0  0  0  0
  2  3  1  0  0  0  0
  3  4  1  0  0  0  0
  4  5  1  0  0  0  0
  5  6  1  0  0  0  0
  6  1  1  0  0  0  0
  1  7  1  1  0  0  0
  5  8  1  1  0  0  0
  3  9  1  1  0  0  0
  2 10  1  6  0  0  0
  4 11  1  6  0  0  0
  7 12  1  0  0  0  0
  8 13  1  0  0  0  0
 13 14  1  0  0  0  0
 14 15  1  0  0  0  0
 15 16  2  0  0  0  0
 16 17  1  0  0  0  0
 17 18  2  0  0  0  0
 18 19  1  0  0  0  0
 19 20  2  0  0  0  0
 20 15  1  0  0  0  0
 18 21  1  0  0  0  0
 19 22  1  0  0  0  0
 12 23  1  0  0  0  0
 23 24  1  0  0  0  0
 23 25  2  0  0  0  0
 24 26  2  0  0  0  0
 26 27  1  0  0  0  0
 27 28  2  0  0  0  0
 28 29  1  0  0  0  0
 29 30  2  0  0  0  0
 30 31  1  0  0  0  0
 31 32  2  0  0  0  0
 32 27  1  0  0  0  0
 30 33  1  0  0  0  0
 29 34  1  0  0  0  0
 35  9  1  1  0  0  0
 35 36  1  0  0  0  0
 36 37  1  0  0  0  0
 37 38  1  0  0  0  0
 38 39  1  0  0  0  0
 39 40  1  0  0  0  0
 40 35  1  0  0  0  0
 37 41  1  6  0  0  0
 39 42  1  6  0  0  0
 40 43  1  6  0  0  0
 38 44  1  1  0  0  0
 47 45  2  0  0  0  0
 11 47  1  0  0  0  0
 47 46  1  0  0  0  0
M  END
>  <cdx:fragmentId>
170

$$$$
