99188.cdx
  Mrv1902 05222410192D          

 13 13  0  0  0  0            999 V2000
    4.8530   -3.4820    0.0000 O   0  0  0  0  0  0  0  0  0  0  0  0
    5.5667   -3.0682    0.0000 C   0  0  0  0  0  0  0  0  0  0  0  0
    9.1398   -3.4743    0.0000 C   0  0  0  0  0  0  0  0  0  0  0  0
    8.4246   -3.0630    0.0000 O   0  0  0  0  0  0  0  0  0  0  0  0
    8.4276   -4.7130    0.0000 O   0  0  0  0  0  0  0  0  0  0  0  0
    7.0001   -5.5406    0.0000 O   0  0  0  0  0  0  0  0  0  0  0  0
    5.5697   -4.7182    0.0000 O   0  0  0  0  0  0  0  0  0  0  0  0
    7.7109   -3.4768    0.0000 C   0  0  2  0  0  0  0  0  0  0  0  0
    7.7124   -4.3018    0.0000 C   0  0  1  0  0  0  0  0  0  0  0  0
    6.9987   -4.7156    0.0000 C   0  0  2  0  0  0  0  0  0  0  0  0
    6.2834   -4.3044    0.0000 C   0  0  1  0  0  0  0  0  0  0  0  0
    6.2819   -3.4794    0.0000 C   0  0  2  0  0  0  0  0  0  0  0  0
    6.9957   -3.0656    0.0000 O   0  0  0  0  0  0  0  0  0  0  0  0
 12  2  1  1  0  0  0
  2  1  1  0  0  0  0
  8  4  1  6  0  0  0
  4  3  1  0  0  0  0
  9  5  1  6  0  0  0
 10  6  1  1  0  0  0
 11  7  1  6  0  0  0
 13  8  1  0  0  0  0
  9  8  1  0  0  0  0
 10  9  1  0  0  0  0
 11 10  1  0  0  0  0
 12 11  1  0  0  0  0
 13 12  1  0  0  0  0
M  END
>  <cdx:fragmentId>
56

$$$$
