99189.cdx
  Mrv1902 05222410192D          

 21 24  0  0  0  0            999 V2000
    5.6831   -6.8618    0.0000 C   0  0  0  0  0  0  0  0  0  0  0  0
    5.2706   -7.5762    0.0000 C   0  0  0  0  0  0  0  0  0  0  0  0
    5.6831   -8.2907    0.0000 C   0  0  0  0  0  0  0  0  0  0  0  0
    6.5081   -8.2907    0.0000 C   0  0  0  0  0  0  0  0  0  0  0  0
    6.9206   -7.5762    0.0000 C   0  0  0  0  0  0  0  0  0  0  0  0
    6.5081   -6.8618    0.0000 C   0  0  0  0  0  0  0  0  0  0  0  0
    7.7456   -7.5762    0.0000 C   0  0  0  0  0  0  0  0  0  0  0  0
    8.1581   -6.8618    0.0000 C   0  0  0  0  0  0  0  0  0  0  0  0
    7.7456   -6.1473    0.0000 C   0  0  0  0  0  0  0  0  0  0  0  0
    6.9206   -6.1473    0.0000 C   0  0  0  0  0  0  0  0  0  0  0  0
    6.9206   -9.0052    0.0000 C   0  0  0  0  0  0  0  0  0  0  0  0
    7.7456   -9.0052    0.0000 O   0  0  0  0  0  0  0  0  0  0  0  0
    8.1581   -8.2907    0.0000 C   0  0  0  0  0  0  0  0  0  0  0  0
    8.9831   -8.2907    0.0000 C   0  0  0  0  0  0  0  0  0  0  0  0
    9.3956   -7.5762    0.0000 C   0  0  0  0  0  0  0  0  0  0  0  0
    8.9831   -6.8618    0.0000 C   0  0  0  0  0  0  0  0  0  0  0  0
    4.4456   -7.5762    0.0000 O   0  0  0  0  0  0  0  0  0  0  0  0
    5.2706   -6.1473    0.0000 O   0  0  0  0  0  0  0  0  0  0  0  0
    4.4456   -6.1473    0.0000 C   0  0  0  0  0  0  0  0  0  0  0  0
    6.5081   -9.7197    0.0000 O   0  0  0  0  0  0  0  0  0  0  0  0
   10.2206   -7.5762    0.0000 O   0  0  0  0  0  0  0  0  0  0  0  0
  1  2  1  0  0  0  0
  2  3  2  0  0  0  0
  3  4  1  0  0  0  0
  4  5  2  0  0  0  0
  5  6  1  0  0  0  0
  6  1  2  0  0  0  0
  5  7  1  0  0  0  0
  7  8  1  0  0  0  0
  8  9  1  0  0  0  0
  9 10  2  0  0  0  0
 10  6  1  0  0  0  0
  4 11  1  0  0  0  0
 11 12  1  0  0  0  0
 12 13  1  0  0  0  0
 13  7  2  0  0  0  0
 13 14  1  0  0  0  0
 14 15  2  0  0  0  0
 15 16  1  0  0  0  0
 16  8  2  0  0  0  0
  2 17  1  0  0  0  0
  1 18  1  0  0  0  0
 18 19  1  0  0  0  0
 11 20  2  0  0  0  0
 15 21  1  0  0  0  0
M  END
>  <cdx:fragmentId>
5

$$$$
