99186.cdx
  Mrv1902 05222410262D          

 18 17  0  0  0  0            999 V2000
    9.0228   -8.8497    0.0000 C   0  0  0  0  0  0  0  0  0  0  0  0
    8.3083   -9.2622    0.0000 C   0  0  0  0  0  0  0  0  0  0  0  0
    7.5939   -8.8497    0.0000 C   0  0  0  0  0  0  0  0  0  0  0  0
    6.8794   -9.2622    0.0000 C   0  0  0  0  0  0  0  0  0  0  0  0
    6.1649   -8.8497    0.0000 C   0  0  0  0  0  0  0  0  0  0  0  0
    5.4505   -9.2622    0.0000 C   0  0  0  0  0  0  0  0  0  0  0  0
    4.7360   -8.8497    0.0000 C   0  0  0  0  0  0  0  0  0  0  0  0
    4.0215   -9.2622    0.0000 C   0  0  0  0  0  0  0  0  0  0  0  0
    3.2910   -8.8788    0.0000 C   0  0  0  0  0  0  0  0  0  0  0  0
    3.3023   -8.0539    0.0000 C   0  0  0  0  0  0  0  0  0  0  0  0
    2.5935   -7.6317    0.0000 C   0  0  0  0  0  0  0  0  0  0  0  0
    2.6048   -6.8067    0.0000 C   0  0  0  0  0  0  0  0  0  0  0  0
    9.0228   -8.0247    0.0000 O   0  0  0  0  0  0  0  0  0  0  0  0
    9.7373   -9.2622    0.0000 N   0  0  0  0  0  0  0  0  0  0  0  0
   10.4518   -8.8497    0.0000 C   0  0  0  0  0  0  0  0  0  0  0  0
   11.1662   -9.2622    0.0000 C   0  0  0  0  0  0  0  0  0  0  0  0
   11.1662  -10.0872    0.0000 C   0  0  0  0  0  0  0  0  0  0  0  0
   11.8807   -8.8497    0.0000 C   0  0  0  0  0  0  0  0  0  0  0  0
  1  2  1  0  0  0  0
  2  3  2  0  0  0  0
  3  4  1  0  0  0  0
  4  5  2  0  0  0  0
  5  6  1  0  0  0  0
  6  7  1  0  0  0  0
  7  8  1  0  0  0  0
  8  9  2  0  0  0  0
  9 10  1  0  0  0  0
 10 11  2  0  0  0  0
 11 12  1  0  0  0  0
  1 13  2  0  0  0  0
  1 14  1  0  0  0  0
 15 16  1  0  0  0  0
 16 17  1  0  0  0  0
 18 16  1  0  0  0  0
 14 15  1  0  0  0  0
M  END
>  <cdx:fragmentId>
5

$$$$
