99182.cdx
  Mrv1902 05222410282D          

 49 52  0  0  0  0            999 V2000
    5.9312   -7.4112    0.0000 C   0  0  2  0  0  0  0  0  0  0  0  0
    5.9312   -8.2363    0.0000 C   0  0  2  0  0  0  0  0  0  0  0  0
    6.6456   -8.6487    0.0000 C   0  0  1  0  0  0  0  0  0  0  0  0
    7.3601   -8.2363    0.0000 C   0  0  2  0  0  0  0  0  0  0  0  0
    7.3601   -7.4112    0.0000 C   0  0  1  0  0  0  0  0  0  0  0  0
    6.6456   -6.9988    0.0000 O   0  0  0  0  0  0  0  0  0  0  0  0
    5.2167   -6.9988    0.0000 C   0  0  0  0  0  0  0  0  0  0  0  0
    8.0746   -6.9988    0.0000 O   0  0  0  0  0  0  0  0  0  0  0  0
    6.6456   -9.4738    0.0000 O   0  0  0  0  0  0  0  0  0  0  0  0
    5.2167   -8.6487    0.0000 O   0  0  0  0  0  0  0  0  0  0  0  0
    8.0746   -8.6487    0.0000 O   0  0  0  0  0  0  0  0  0  0  0  0
    4.5022   -7.4112    0.0000 O   0  0  0  0  0  0  0  0  0  0  0  0
    8.7891   -7.4112    0.0000 C   0  0  0  0  0  0  0  0  0  0  0  0
    9.5035   -6.9988    0.0000 C   0  0  0  0  0  0  0  0  0  0  0  0
   10.2180   -7.4112    0.0000 C   0  0  0  0  0  0  0  0  0  0  0  0
   10.2180   -8.2363    0.0000 C   0  0  0  0  0  0  0  0  0  0  0  0
   10.9325   -8.6487    0.0000 C   0  0  0  0  0  0  0  0  0  0  0  0
   11.6469   -8.2363    0.0000 C   0  0  0  0  0  0  0  0  0  0  0  0
   11.6469   -7.4112    0.0000 C   0  0  0  0  0  0  0  0  0  0  0  0
   10.9325   -6.9988    0.0000 C   0  0  0  0  0  0  0  0  0  0  0  0
   12.3614   -8.6487    0.0000 O   0  0  0  0  0  0  0  0  0  0  0  0
   12.3614   -6.9987    0.0000 O   0  0  0  0  0  0  0  0  0  0  0  0
    3.7878   -6.9988    0.0000 C   0  0  0  0  0  0  0  0  0  0  0  0
    3.0733   -7.4112    0.0000 C   0  0  0  0  0  0  0  0  0  0  0  0
    3.7878   -6.1737    0.0000 O   0  0  0  0  0  0  0  0  0  0  0  0
    0.9299   -4.5237    0.0000 O   0  0  0  0  0  0  0  0  0  0  0  0
    2.3588   -3.6987    0.0000 O   0  0  0  0  0  0  0  0  0  0  0  0
    3.0733   -5.7612    0.0000 C   0  0  0  0  0  0  0  0  0  0  0  0
    3.0733   -4.9362    0.0000 C   0  0  0  0  0  0  0  0  0  0  0  0
    2.3588   -4.5237    0.0000 C   0  0  0  0  0  0  0  0  0  0  0  0
    1.6444   -4.9362    0.0000 C   0  0  0  0  0  0  0  0  0  0  0  0
    1.6444   -5.7612    0.0000 C   0  0  0  0  0  0  0  0  0  0  0  0
    2.3588   -6.1737    0.0000 C   0  0  0  0  0  0  0  0  0  0  0  0
    2.3588   -6.9988    0.0000 C   0  0  0  0  0  0  0  0  0  0  0  0
    5.9312   -9.8863    0.0000 C   0  0  2  0  0  0  0  0  0  0  0  0
    5.2167   -9.4738    0.0000 O   0  0  0  0  0  0  0  0  0  0  0  0
    4.5022   -9.8863    0.0000 C   0  0  2  0  0  0  0  0  0  0  0  0
    4.5022  -10.7112    0.0000 C   0  0  1  0  0  0  0  0  0  0  0  0
    5.2167  -11.1237    0.0000 C   0  0  2  0  0  0  0  0  0  0  0  0
    5.9312  -10.7112    0.0000 C   0  0  1  0  0  0  0  0  0  0  0  0
    3.7878   -9.4738    0.0000 C   0  0  0  0  0  0  0  0  0  0  0  0
    5.2167  -11.9488    0.0000 O   0  0  0  0  0  0  0  0  0  0  0  0
    6.6456  -11.1237    0.0000 O   0  0  0  0  0  0  0  0  0  0  0  0
    3.7878  -11.1237    0.0000 O   0  0  0  0  0  0  0  0  0  0  0  0
    8.7891   -9.8863    0.0000 O   0  0  0  0  0  0  0  0  0  0  0  0
    7.3601   -9.8862    0.0000 C   0  0  0  0  0  0  0  0  0  0  0  0
    8.0746   -9.4738    0.0000 C   0  0  0  0  0  0  0  0  0  0  0  0
    0.9299   -3.6987    0.0000 C   0  0  0  0  0  0  0  0  0  0  0  0
   13.0759   -7.4112    0.0000 C   0  0  0  0  0  0  0  0  0  0  0  0
  1  2  1  0  0  0  0
  2  3  1  0  0  0  0
  3  4  1  0  0  0  0
  4  5  1  0  0  0  0
  5  6  1  0  0  0  0
  6  1  1  0  0  0  0
  1  7  1  1  0  0  0
  5  8  1  1  0  0  0
  3  9  1  1  0  0  0
  2 10  1  6  0  0  0
  4 11  1  6  0  0  0
  7 12  1  0  0  0  0
  8 13  1  0  0  0  0
 13 14  1  0  0  0  0
 14 15  1  0  0  0  0
 15 16  2  0  0  0  0
 16 17  1  0  0  0  0
 17 18  2  0  0  0  0
 18 19  1  0  0  0  0
 19 20  2  0  0  0  0
 20 15  1  0  0  0  0
 18 21  1  0  0  0  0
 19 22  1  0  0  0  0
 12 23  1  0  0  0  0
 23 24  1  0  0  0  0
 23 25  2  0  0  0  0
 31 26  1  0  0  0  0
 24 34  2  0  0  0  0
 30 27  1  0  0  0  0
 28 33  1  0  0  0  0
 29 28  2  0  0  0  0
 30 29  1  0  0  0  0
 31 30  2  0  0  0  0
 32 31  1  0  0  0  0
 33 32  2  0  0  0  0
 34 33  1  0  0  0  0
 35  9  1  1  0  0  0
 35 36  1  0  0  0  0
 36 37  1  0  0  0  0
 37 38  1  0  0  0  0
 38 39  1  0  0  0  0
 39 40  1  0  0  0  0
 40 35  1  0  0  0  0
 37 41  1  6  0  0  0
 39 42  1  6  0  0  0
 40 43  1  6  0  0  0
 38 44  1  1  0  0  0
 47 45  2  0  0  0  0
 11 47  1  0  0  0  0
 47 46  1  0  0  0  0
 26 48  1  0  0  0  0
 22 49  1  0  0  0  0
M  END
>  <cdx:fragmentId>
176

$$$$
