99191.cdx
  Mrv1902 05222410272D          

 45 48  0  0  0  0            999 V2000
    7.1137   -7.9337    0.0000 C   0  0  2  0  0  0  0  0  0  0  0  0
    7.1137   -8.7588    0.0000 C   0  0  2  0  0  0  0  0  0  0  0  0
    7.8281   -9.1713    0.0000 C   0  0  1  0  0  0  0  0  0  0  0  0
    8.5426   -8.7588    0.0000 C   0  0  2  0  0  0  0  0  0  0  0  0
    8.5426   -7.9337    0.0000 C   0  0  1  0  0  0  0  0  0  0  0  0
    7.8281   -7.5213    0.0000 O   0  0  0  0  0  0  0  0  0  0  0  0
    6.3992   -7.5213    0.0000 C   0  0  0  0  0  0  0  0  0  0  0  0
    9.2571   -7.5213    0.0000 O   0  0  0  0  0  0  0  0  0  0  0  0
    7.8281   -9.9962    0.0000 O   0  0  0  0  0  0  0  0  0  0  0  0
    6.3992   -9.1713    0.0000 O   0  0  0  0  0  0  0  0  0  0  0  0
    9.2571   -9.1713    0.0000 O   0  0  0  0  0  0  0  0  0  0  0  0
    5.6847   -7.9337    0.0000 O   0  0  0  0  0  0  0  0  0  0  0  0
    9.9716   -7.9337    0.0000 C   0  0  0  0  0  0  0  0  0  0  0  0
   10.6860   -7.5213    0.0000 C   0  0  0  0  0  0  0  0  0  0  0  0
   11.4005   -7.9337    0.0000 C   0  0  0  0  0  0  0  0  0  0  0  0
   11.4005   -8.7588    0.0000 C   0  0  0  0  0  0  0  0  0  0  0  0
   12.1150   -9.1713    0.0000 C   0  0  0  0  0  0  0  0  0  0  0  0
   12.8294   -8.7588    0.0000 C   0  0  0  0  0  0  0  0  0  0  0  0
   12.8294   -7.9337    0.0000 C   0  0  0  0  0  0  0  0  0  0  0  0
   12.1150   -7.5213    0.0000 C   0  0  0  0  0  0  0  0  0  0  0  0
   13.5439   -9.1713    0.0000 O   0  0  0  0  0  0  0  0  0  0  0  0
   13.5439   -7.5212    0.0000 O   0  0  0  0  0  0  0  0  0  0  0  0
    4.9703   -7.5213    0.0000 C   0  0  0  0  0  0  0  0  0  0  0  0
    4.2558   -7.9337    0.0000 C   0  0  0  0  0  0  0  0  0  0  0  0
    4.9703   -6.6962    0.0000 O   0  0  0  0  0  0  0  0  0  0  0  0
    3.5413   -7.5213    0.0000 C   0  0  0  0  0  0  0  0  0  0  0  0
    2.8269   -7.9337    0.0000 C   0  0  0  0  0  0  0  0  0  0  0  0
    2.1124   -7.5212    0.0000 C   0  0  0  0  0  0  0  0  0  0  0  0
    1.3979   -7.9337    0.0000 C   0  0  0  0  0  0  0  0  0  0  0  0
    1.3979   -8.7587    0.0000 C   0  0  0  0  0  0  0  0  0  0  0  0
    2.1124   -9.1712    0.0000 C   0  0  0  0  0  0  0  0  0  0  0  0
    2.8269   -8.7587    0.0000 C   0  0  0  0  0  0  0  0  0  0  0  0
    0.6834   -9.1712    0.0000 O   0  0  0  0  0  0  0  0  0  0  0  0
    0.6834   -7.5213    0.0000 O   0  0  0  0  0  0  0  0  0  0  0  0
    7.1137  -10.4087    0.0000 C   0  0  2  0  0  0  0  0  0  0  0  0
    6.3992   -9.9962    0.0000 O   0  0  0  0  0  0  0  0  0  0  0  0
    5.6847  -10.4087    0.0000 C   0  0  2  0  0  0  0  0  0  0  0  0
    5.6847  -11.2338    0.0000 C   0  0  1  0  0  0  0  0  0  0  0  0
    6.3992  -11.6463    0.0000 C   0  0  2  0  0  0  0  0  0  0  0  0
    7.1137  -11.2338    0.0000 C   0  0  1  0  0  0  0  0  0  0  0  0
    4.9703   -9.9962    0.0000 C   0  0  0  0  0  0  0  0  0  0  0  0
    6.3992  -12.4712    0.0000 O   0  0  0  0  0  0  0  0  0  0  0  0
    7.8281  -11.6463    0.0000 O   0  0  0  0  0  0  0  0  0  0  0  0
    4.9703  -11.6463    0.0000 O   0  0  0  0  0  0  0  0  0  0  0  0
   14.2584   -7.9337    0.0000 C   0  0  0  0  0  0  0  0  0  0  0  0
  1  2  1  0  0  0  0
  2  3  1  0  0  0  0
  3  4  1  0  0  0  0
  4  5  1  0  0  0  0
  5  6  1  0  0  0  0
  6  1  1  0  0  0  0
  1  7  1  1  0  0  0
  5  8  1  1  0  0  0
  3  9  1  1  0  0  0
  2 10  1  6  0  0  0
  4 11  1  6  0  0  0
  7 12  1  0  0  0  0
  8 13  1  0  0  0  0
 13 14  1  0  0  0  0
 14 15  1  0  0  0  0
 15 16  2  0  0  0  0
 16 17  1  0  0  0  0
 17 18  2  0  0  0  0
 18 19  1  0  0  0  0
 19 20  2  0  0  0  0
 20 15  1  0  0  0  0
 18 21  1  0  0  0  0
 19 22  1  0  0  0  0
 12 23  1  0  0  0  0
 23 24  1  0  0  0  0
 23 25  2  0  0  0  0
 24 26  2  0  0  0  0
 26 27  1  0  0  0  0
 27 28  2  0  0  0  0
 28 29  1  0  0  0  0
 29 30  2  0  0  0  0
 30 31  1  0  0  0  0
 31 32  2  0  0  0  0
 32 27  1  0  0  0  0
 30 33  1  0  0  0  0
 29 34  1  0  0  0  0
 35  9  1  1  0  0  0
 35 36  1  0  0  0  0
 36 37  1  0  0  0  0
 37 38  1  0  0  0  0
 38 39  1  0  0  0  0
 39 40  1  0  0  0  0
 40 35  1  0  0  0  0
 37 41  1  6  0  0  0
 39 42  1  6  0  0  0
 40 43  1  6  0  0  0
 38 44  1  1  0  0  0
 22 45  1  0  0  0  0
M  END
>  <cdx:fragmentId>
173

$$$$
