992.cdx
  Mrv1902 05222410202D          

 12 12  0  0  0  0            999 V2000
    6.9491   -4.2401    0.0000 C   0  0  0  0  0  0  0  0  0  0  0  0
    7.6680   -4.6447    0.0000 C   0  0  0  0  0  0  0  0  0  0  0  0
    7.6771   -5.4697    0.0000 C   0  0  0  0  0  0  0  0  0  0  0  0
    6.9672   -5.8900    0.0000 C   0  0  0  0  0  0  0  0  0  0  0  0
    6.2482   -5.4854    0.0000 C   0  0  0  0  0  0  0  0  0  0  0  0
    6.2392   -4.6604    0.0000 C   0  0  0  0  0  0  0  0  0  0  0  0
    6.9400   -3.4152    0.0000 O   0  0  0  0  0  0  0  0  0  0  0  0
    5.5202   -4.2558    0.0000 Cl  0  0  0  0  0  0  0  0  0  0  0  0
    5.5383   -5.9057    0.0000 Cl  0  0  0  0  0  0  0  0  0  0  0  0
    6.9763   -6.7150    0.0000 Cl  0  0  0  0  0  0  0  0  0  0  0  0
    8.3960   -5.8743    0.0000 Cl  0  0  0  0  0  0  0  0  0  0  0  0
    8.3779   -4.2244    0.0000 Cl  0  0  0  0  0  0  0  0  0  0  0  0
  1  2  1  0  0  0  0
  2  3  2  0  0  0  0
  3  4  1  0  0  0  0
  4  5  2  0  0  0  0
  5  6  1  0  0  0  0
  1  6  2  0  0  0  0
  1  7  1  0  0  0  0
  6  8  1  0  0  0  0
  5  9  1  0  0  0  0
  4 10  1  0  0  0  0
  3 11  1  0  0  0  0
  2 12  1  0  0  0  0
M  END
>  <cdx:fragmentId>
5

$$$$
