99202.cdx
  Mrv1902 05222410202D          

 35 37  0  0  0  0            999 V2000
    4.1849   -9.3225    0.0000 C   0  0  0  0  0  0  0  0  0  0  0  0
    4.1849  -10.1475    0.0000 C   0  0  0  0  0  0  0  0  0  0  0  0
    4.8994  -10.5600    0.0000 C   0  0  0  0  0  0  0  0  0  0  0  0
    5.6139  -10.1475    0.0000 C   0  0  0  0  0  0  0  0  0  0  0  0
    5.6139   -9.3225    0.0000 C   0  0  0  0  0  0  0  0  0  0  0  0
    4.8994   -8.9100    0.0000 C   0  0  0  0  0  0  0  0  0  0  0  0
    6.3283  -10.5600    0.0000 C   0  0  0  0  0  0  0  0  0  0  0  0
    7.0428  -10.1475    0.0000 C   0  0  0  0  0  0  0  0  0  0  0  0
    7.0428   -9.3225    0.0000 C   0  0  2  0  0  0  0  0  0  0  0  0
    6.3283   -8.9100    0.0000 O   0  0  0  0  0  0  0  0  0  0  0  0
    8.4718   -9.3225    0.0000 C   0  0  0  0  0  0  0  0  0  0  0  0
    7.7573   -8.9100    0.0000 C   0  0  0  0  0  0  0  0  0  0  0  0
    9.1862   -8.9100    0.0000 C   0  0  0  0  0  0  0  0  0  0  0  0
    9.1862   -8.0850    0.0000 C   0  0  0  0  0  0  0  0  0  0  0  0
    8.4718   -7.6725    0.0000 C   0  0  0  0  0  0  0  0  0  0  0  0
    7.7573   -8.0850    0.0000 C   0  0  0  0  0  0  0  0  0  0  0  0
    3.4705   -8.9100    0.0000 O   0  0  0  0  0  0  0  0  0  0  0  0
    6.3283  -11.3850    0.0000 O   0  0  0  0  0  0  0  0  0  0  0  0
    9.9007   -7.6725    0.0000 O   0  0  0  0  0  0  0  0  0  0  0  0
    8.4718   -6.8475    0.0000 C   0  0  0  0  0  0  0  0  0  0  0  0
    7.7573   -6.4350    0.0000 C   0  0  0  0  0  0  0  0  0  0  0  0
    7.7573   -5.6100    0.0000 C   0  0  0  0  0  0  0  0  0  0  0  0
    8.4718   -5.1975    0.0000 C   0  0  0  0  0  0  0  0  0  0  0  0
    7.0428   -5.1975    0.0000 C   0  0  0  0  0  0  0  0  0  0  0  0
    4.9006   -8.0421    0.0000 C   0  0  0  0  0  0  0  0  0  0  0  0
    4.1859   -7.6300    0.0000 C   0  0  0  0  0  0  0  0  0  0  0  0
    3.4717   -8.0429    0.0000 O   0  0  0  0  0  0  0  0  0  0  0  0
    4.1854   -6.8050    0.0000 C   0  0  0  0  0  0  0  0  0  0  0  0
    4.8997   -6.3921    0.0000 C   0  0  0  0  0  0  0  0  0  0  0  0
    3.4707   -6.3929    0.0000 C   0  0  0  0  0  0  0  0  0  0  0  0
    9.8915   -9.3303    0.0000 C   0  0  0  0  0  0  0  0  0  0  0  0
   10.6082   -8.9217    0.0000 C   0  0  0  0  0  0  0  0  0  0  0  0
   11.3204   -9.3382    0.0000 C   0  0  0  0  0  0  0  0  0  0  0  0
   12.0371   -8.9296    0.0000 C   0  0  0  0  0  0  0  0  0  0  0  0
   11.3159  -10.1632    0.0000 C   0  0  0  0  0  0  0  0  0  0  0  0
  1  2  2  0  0  0  0
  2  3  1  0  0  0  0
  3  4  2  0  0  0  0
  4  5  1  0  0  0  0
  5  6  2  0  0  0  0
  6  1  1  0  0  0  0
  4  7  1  0  0  0  0
  7  8  1  0  0  0  0
  8  9  1  0  0  0  0
  9 10  1  0  0  0  0
 10  5  1  0  0  0  0
 11 12  2  0  0  0  0
  9 12  1  6  0  0  0
 11 13  1  0  0  0  0
 13 14  2  0  0  0  0
 14 15  1  0  0  0  0
 15 16  2  0  0  0  0
 16 12  1  0  0  0  0
  1 17  1  0  0  0  0
  7 18  2  0  0  0  0
 14 19  1  0  0  0  0
 15 20  1  0  0  0  0
 20 21  1  0  0  0  0
 21 22  2  0  0  0  0
 22 23  1  0  0  0  0
 22 24  1  0  0  0  0
 25 26  1  0  0  0  0
 26 27  1  0  0  0  0
 26 28  1  0  0  0  0
 28 29  1  0  0  0  0
 28 30  2  0  0  0  0
 31 32  1  0  0  0  0
 32 33  2  0  0  0  0
 33 34  1  0  0  0  0
 33 35  1  0  0  0  0
 25  6  1  0  0  0  0
 31 13  1  0  0  0  0
M  END
>  <cdx:fragmentId>
5

$$$$
