99203.cdx
  Mrv1902 05222410202D          

 40 44  0  0  0  0            999 V2000
    5.4224   -8.2637    0.0000 C   0  0  0  0  0  0  0  0  0  0  0  0
    5.4224   -9.0887    0.0000 C   0  0  0  0  0  0  0  0  0  0  0  0
    6.1369   -9.5013    0.0000 C   0  0  1  0  0  0  0  0  0  0  0  0
    6.8514   -9.0887    0.0000 C   0  0  2  0  0  0  0  0  0  0  0  0
    6.8514   -8.2637    0.0000 C   0  0  1  0  0  0  0  0  0  0  0  0
    6.1369   -7.8513    0.0000 C   0  0  0  0  0  0  0  0  0  0  0  0
    7.5658   -9.5013    0.0000 C   0  0  0  0  0  0  0  0  0  0  0  0
    8.2803   -9.0887    0.0000 C   0  0  0  0  0  0  0  0  0  0  0  0
    8.2803   -8.2637    0.0000 C   0  0  0  0  0  0  0  0  0  0  0  0
    7.5658   -7.8513    0.0000 C   0  0  1  0  0  0  0  0  0  0  0  0
    8.9948   -7.8513    0.0000 C   0  0  0  0  0  0  0  0  0  0  0  0
    8.9948   -7.0263    0.0000 C   0  0  2  0  0  0  0  0  0  0  0  0
    8.2803   -6.6137    0.0000 C   0  0  0  0  0  0  0  0  0  0  0  0
    7.5658   -7.0263    0.0000 C   0  0  0  0  0  0  0  0  0  0  0  0
    9.7093   -6.6137    0.0000 C   0  0  1  0  0  0  0  0  0  0  0  0
   10.4629   -6.9493    0.0000 C   0  0  0  0  0  0  0  0  0  0  0  0
   11.0150   -6.3362    0.0000 O   0  0  0  0  0  0  0  0  0  0  0  0
   10.6025   -5.6217    0.0000 C   0  0  0  0  0  0  0  0  0  0  0  0
    9.7955   -5.7933    0.0000 O   0  0  0  0  0  0  0  0  0  0  0  0
    4.7080   -9.5013    0.0000 O   0  0  0  0  0  0  0  0  0  0  0  0
   10.6025   -4.7967    0.0000 C   0  0  0  0  0  0  0  0  0  0  0  0
   11.3169   -5.2092    0.0000 C   0  0  0  0  0  0  0  0  0  0  0  0
    8.9948   -6.2012    0.0000 C   0  0  0  0  0  0  0  0  0  0  0  0
    9.4957   -7.4106    0.0000 H   0  0  0  0  0  0  0  0  0  0  0  0
    7.5658   -8.6762    0.0000 H   0  0  0  0  0  0  0  0  0  0  0  0
    6.8514   -9.9138    0.0000 H   0  0  0  0  0  0  0  0  0  0  0  0
    5.7244  -10.2157    0.0000 C   0  0  0  0  0  0  0  0  0  0  0  0
    6.5494  -10.2157    0.0000 C   0  0  0  0  0  0  0  0  0  0  0  0
    6.8514   -7.4387    0.0000 C   0  0  0  0  0  0  0  0  0  0  0  0
    3.9935   -9.0887    0.0000 C   0  0  2  0  0  0  0  0  0  0  0  0
    3.9935   -8.2637    0.0000 O   0  0  0  0  0  0  0  0  0  0  0  0
    3.2790   -7.8512    0.0000 C   0  0  1  0  0  0  0  0  0  0  0  0
    2.5645   -8.2637    0.0000 C   0  0  2  0  0  0  0  0  0  0  0  0
    2.5645   -9.0887    0.0000 C   0  0  1  0  0  0  0  0  0  0  0  0
    3.2790   -9.5013    0.0000 C   0  0  1  0  0  0  0  0  0  0  0  0
    3.2790   -7.0262    0.0000 C   0  0  0  0  0  0  0  0  0  0  0  0
    1.8501   -9.5013    0.0000 O   0  0  0  0  0  0  0  0  0  0  0  0
    1.8501   -7.8513    0.0000 O   0  0  0  0  0  0  0  0  0  0  0  0
    3.2790  -10.3262    0.0000 O   0  0  0  0  0  0  0  0  0  0  0  0
    2.5645   -6.6137    0.0000 O   0  0  0  0  0  0  0  0  0  0  0  0
  1  2  1  0  0  0  0
  2  3  1  0  0  0  0
  3  4  1  0  0  0  0
  4  5  1  0  0  0  0
  5  6  1  0  0  0  0
  6  1  1  0  0  0  0
  4  7  1  0  0  0  0
  7  8  1  0  0  0  0
  8  9  1  0  0  0  0
  9 10  1  0  0  0  0
 10  5  1  0  0  0  0
  9 11  2  0  0  0  0
 11 12  1  0  0  0  0
 12 13  1  0  0  0  0
 13 14  1  0  0  0  0
 14 10  1  0  0  0  0
 12 15  1  0  0  0  0
 15 16  1  0  0  0  0
 16 17  1  0  0  0  0
 17 18  1  0  0  0  0
 18 19  1  0  0  0  0
 19 15  1  0  0  0  0
  2 20  1  0  0  0  0
 18 21  1  0  0  0  0
 18 22  1  0  0  0  0
 12 23  1  1  0  0  0
 15 24  1  1  0  0  0
 10 25  1  1  0  0  0
  4 26  1  1  0  0  0
  3 27  1  1  0  0  0
  3 28  1  6  0  0  0
  5 29  1  6  0  0  0
 30 20  1  1  0  0  0
 30 31  1  0  0  0  0
 31 32  1  0  0  0  0
 32 33  1  0  0  0  0
 33 34  1  0  0  0  0
 34 35  1  0  0  0  0
 35 30  1  0  0  0  0
 32 36  1  1  0  0  0
 34 37  1  1  0  0  0
 33 38  1  6  0  0  0
 35 39  1  6  0  0  0
 36 40  1  0  0  0  0
M  END
>  <cdx:fragmentId>
5

$$$$
