99206.cdx
  Mrv1902 05222410182D          

 26 28  0  0  0  0            999 V2000
    4.2186   -7.4731    0.0000 C   0  0  0  0  0  0  0  0  0  0  0  0
    4.2186   -8.2981    0.0000 C   0  0  0  0  0  0  0  0  0  0  0  0
    4.9330   -8.7106    0.0000 C   0  0  0  0  0  0  0  0  0  0  0  0
    5.6475   -8.2981    0.0000 C   0  0  0  0  0  0  0  0  0  0  0  0
    5.6475   -7.4731    0.0000 C   0  0  0  0  0  0  0  0  0  0  0  0
    4.9330   -7.0606    0.0000 C   0  0  0  0  0  0  0  0  0  0  0  0
    6.3620   -8.7106    0.0000 C   0  0  0  0  0  0  0  0  0  0  0  0
    7.0764   -8.2981    0.0000 C   0  0  0  0  0  0  0  0  0  0  0  0
    7.0764   -7.4731    0.0000 C   0  0  0  0  0  0  0  0  0  0  0  0
    6.3620   -7.0606    0.0000 O   0  0  0  0  0  0  0  0  0  0  0  0
    7.7909   -8.7106    0.0000 C   0  0  0  0  0  0  0  0  0  0  0  0
    8.5054   -8.2981    0.0000 C   0  0  0  0  0  0  0  0  0  0  0  0
    8.5054   -7.4731    0.0000 C   0  0  0  0  0  0  0  0  0  0  0  0
    9.2199   -8.7106    0.0000 C   0  0  0  0  0  0  0  0  0  0  0  0
    9.9343   -8.2981    0.0000 C   0  0  0  0  0  0  0  0  0  0  0  0
    9.9343   -7.4731    0.0000 C   0  0  0  0  0  0  0  0  0  0  0  0
    9.2199   -7.0606    0.0000 C   0  0  0  0  0  0  0  0  0  0  0  0
    6.3620   -9.5356    0.0000 O   0  0  0  0  0  0  0  0  0  0  0  0
    4.9330   -9.5356    0.0000 O   0  0  0  0  0  0  0  0  0  0  0  0
    9.2199   -6.2356    0.0000 O   0  0  0  0  0  0  0  0  0  0  0  0
   10.6488   -7.0606    0.0000 O   0  0  0  0  0  0  0  0  0  0  0  0
    3.5041   -7.0606    0.0000 O   0  0  0  0  0  0  0  0  0  0  0  0
    2.7896   -7.4731    0.0000 C   0  0  0  0  0  0  0  0  0  0  0  0
    4.9330   -6.2356    0.0000 O   0  0  0  0  0  0  0  0  0  0  0  0
    4.2186   -5.8231    0.0000 C   0  0  0  0  0  0  0  0  0  0  0  0
    3.5041   -8.7106    0.0000 C   0  0  0  0  0  0  0  0  0  0  0  0
  1  2  2  0  0  0  0
  2  3  1  0  0  0  0
  3  4  2  0  0  0  0
  4  5  1  0  0  0  0
  5  6  2  0  0  0  0
  6  1  1  0  0  0  0
  4  7  1  0  0  0  0
  7  8  1  0  0  0  0
  8  9  1  0  0  0  0
  9 10  1  0  0  0  0
 10  5  1  0  0  0  0
  8 11  1  0  0  0  0
 11 12  1  0  0  0  0
 12 13  2  0  0  0  0
 12 14  1  0  0  0  0
 14 15  2  0  0  0  0
 15 16  1  0  0  0  0
 16 17  2  0  0  0  0
 17 13  1  0  0  0  0
  7 18  2  0  0  0  0
  3 19  1  0  0  0  0
 17 20  1  0  0  0  0
 16 21  1  0  0  0  0
  1 22  1  0  0  0  0
 22 23  1  0  0  0  0
  6 24  1  0  0  0  0
 24 25  1  0  0  0  0
  2 26  1  0  0  0  0
M  END
>  <cdx:fragmentId>
5

$$$$
