99209.cdx
  Mrv1902 05222410272D          

 21 25  0  0  0  0            999 V2000
    5.4087   -5.6512    0.0000 C   0  0  0  0  0  0  0  0  0  0  0  0
    5.4087   -6.4763    0.0000 C   0  0  0  0  0  0  0  0  0  0  0  0
    6.1231   -6.8888    0.0000 C   0  0  0  0  0  0  0  0  0  0  0  0
    6.8376   -6.4763    0.0000 C   0  0  0  0  0  0  0  0  0  0  0  0
    6.8376   -5.6512    0.0000 C   0  0  0  0  0  0  0  0  0  0  0  0
    6.1231   -5.2387    0.0000 C   0  0  0  0  0  0  0  0  0  0  0  0
    6.1231   -7.7138    0.0000 C   0  0  0  0  0  0  0  0  0  0  0  0
    6.8376   -8.1262    0.0000 C   0  0  0  0  0  0  0  0  0  0  0  0
    7.5521   -7.7138    0.0000 C   0  0  0  0  0  0  0  0  0  0  0  0
    7.5521   -6.8888    0.0000 C   0  0  0  0  0  0  0  0  0  0  0  0
    5.4087   -8.1262    0.0000 C   0  0  0  0  0  0  0  0  0  0  0  0
    5.4087   -8.9512    0.0000 C   0  0  0  0  0  0  0  0  0  0  0  0
    6.1231   -9.3637    0.0000 C   0  0  0  0  0  0  0  0  0  0  0  0
    6.8376   -8.9512    0.0000 C   0  0  0  0  0  0  0  0  0  0  0  0
    4.6241   -5.3963    0.0000 O   0  0  0  0  0  0  0  0  0  0  0  0
    4.1391   -6.0638    0.0000 C   0  0  0  0  0  0  0  0  0  0  0  0
    4.6241   -6.7312    0.0000 O   0  0  0  0  0  0  0  0  0  0  0  0
    4.6942   -9.3637    0.0000 O   0  0  0  0  0  0  0  0  0  0  0  0
    7.6345   -5.4377    0.0000 C   0  0  0  0  0  0  0  0  0  0  0  0
    8.1355   -6.3054    0.0000 N   0  0  0  0  0  0  0  0  0  0  0  0
    7.9502   -4.6755    0.0000 O   0  0  0  0  0  0  0  0  0  0  0  0
  1  2  2  0  0  0  0
  2  3  1  0  0  0  0
  3  4  2  0  0  0  0
  4  5  1  0  0  0  0
  5  6  2  0  0  0  0
  6  1  1  0  0  0  0
  3  7  1  0  0  0  0
  7  8  2  0  0  0  0
  8  9  1  0  0  0  0
  9 10  2  0  0  0  0
 10  4  1  0  0  0  0
  7 11  1  0  0  0  0
 11 12  2  0  0  0  0
 12 13  1  0  0  0  0
 13 14  2  0  0  0  0
 14  8  1  0  0  0  0
  1 15  1  0  0  0  0
 15 16  1  0  0  0  0
 16 17  1  0  0  0  0
 17  2  1  0  0  0  0
 12 18  1  0  0  0  0
  5 19  1  0  0  0  0
 10 20  1  0  0  0  0
 19 20  1  0  0  0  0
 19 21  2  0  0  0  0
M  END
>  <cdx:fragmentId>
5

$$$$
