99200.cdx
  Mrv1902 05222410192D          

 43 47  0  0  0  0            999 V2000
    9.9902   -8.0025    0.0000 C   0  0  2  0  0  0  0  0  0  0  0  0
   10.7748   -8.2574    0.0000 C   0  0  1  0  0  0  0  0  0  0  0  0
   11.5953   -8.3437    0.0000 O   0  0  0  0  0  0  0  0  0  0  0  0
   11.2597   -7.5900    0.0000 C   0  0  1  0  0  0  0  0  0  0  0  0
   10.7748   -6.9226    0.0000 C   0  0  2  0  0  0  0  0  0  0  0  0
    9.9902   -7.1775    0.0000 C   0  0  2  0  0  0  0  0  0  0  0  0
    9.2757   -6.7650    0.0000 C   0  0  0  0  0  0  0  0  0  0  0  0
    8.5612   -7.1775    0.0000 C   0  0  0  0  0  0  0  0  0  0  0  0
    8.5612   -8.0025    0.0000 O   0  0  0  0  0  0  0  0  0  0  0  0
    9.2757   -8.4150    0.0000 C   0  0  1  0  0  0  0  0  0  0  0  0
    9.2757   -5.9400    0.0000 C   0  0  0  0  0  0  0  0  0  0  0  0
    9.9902   -5.5275    0.0000 O   0  0  0  0  0  0  0  0  0  0  0  0
    8.5612   -5.5275    0.0000 O   0  0  0  0  0  0  0  0  0  0  0  0
    9.2757   -9.2400    0.0000 O   0  0  0  0  0  0  0  0  0  0  0  0
    7.8468   -9.2400    0.0000 O   0  0  0  0  0  0  0  0  0  0  0  0
    8.5612   -9.6525    0.0000 C   0  0  2  0  0  0  0  0  0  0  0  0
    8.5612  -10.4775    0.0000 C   0  0  1  0  0  0  0  0  0  0  0  0
    7.8468  -10.8900    0.0000 C   0  0  2  0  0  0  0  0  0  0  0  0
    7.1323  -10.4775    0.0000 C   0  0  1  0  0  0  0  0  0  0  0  0
    7.1323   -9.6525    0.0000 C   0  0  1  0  0  0  0  0  0  0  0  0
    6.4178   -9.2400    0.0000 C   0  0  0  0  0  0  0  0  0  0  0  0
    5.7034   -9.6525    0.0000 O   0  0  0  0  0  0  0  0  0  0  0  0
    6.4178  -10.8900    0.0000 O   0  0  0  0  0  0  0  0  0  0  0  0
    7.8468  -11.7150    0.0000 O   0  0  0  0  0  0  0  0  0  0  0  0
    9.2757  -10.8900    0.0000 O   0  0  0  0  0  0  0  0  0  0  0  0
   10.6033   -9.0644    0.0000 C   0  0  0  0  0  0  0  0  0  0  0  0
   10.0764   -6.3570    0.0000 O   0  0  0  0  0  0  0  0  0  0  0  0
   11.0297   -6.1379    0.0000 O   0  0  0  0  0  0  0  0  0  0  0  0
    9.9902   -8.8275    0.0000 H   0  0  0  0  0  0  0  0  0  0  0  0
   11.9742   -7.1775    0.0000 H   0  0  0  0  0  0  0  0  0  0  0  0
    8.5612   -4.7025    0.0000 C   0  0  0  0  0  0  0  0  0  0  0  0
    4.2674   -7.1775    0.0000 C   0  0  0  0  0  0  0  0  0  0  0  0
    4.2674   -8.0025    0.0000 C   0  0  0  0  0  0  0  0  0  0  0  0
    4.9819   -8.4150    0.0000 C   0  0  0  0  0  0  0  0  0  0  0  0
    5.6964   -8.0025    0.0000 C   0  0  0  0  0  0  0  0  0  0  0  0
    5.6964   -7.1775    0.0000 C   0  0  0  0  0  0  0  0  0  0  0  0
    4.9819   -6.7650    0.0000 C   0  0  0  0  0  0  0  0  0  0  0  0
    3.5530   -6.7650    0.0000 C   0  0  0  0  0  0  0  0  0  0  0  0
    4.9819   -5.9400    0.0000 O   0  0  0  0  0  0  0  0  0  0  0  0
    6.4108   -6.7650    0.0000 C   0  0  0  0  0  0  0  0  0  0  0  0
    2.8385   -7.1775    0.0000 O   0  0  0  0  0  0  0  0  0  0  0  0
    7.1253   -7.1775    0.0000 O   0  0  0  0  0  0  0  0  0  0  0  0
    4.9819   -9.2400    0.0000 C   0  0  0  0  0  0  0  0  0  0  0  0
  1  2  1  0  0  0  0
  2  3  1  0  0  0  0
  3  4  1  0  0  0  0
  4  5  1  0  0  0  0
  5  6  1  0  0  0  0
  6  7  1  0  0  0  0
  7  8  2  0  0  0  0
  8  9  1  0  0  0  0
  9 10  1  0  0  0  0
  1 10  1  0  0  0  0
  1  6  1  0  0  0  0
  2  4  1  0  0  0  0
 11 12  2  0  0  0  0
 11 13  1  0  0  0  0
  7 11  1  0  0  0  0
 15 16  1  0  0  0  0
 16 17  1  0  0  0  0
 17 18  1  0  0  0  0
 18 19  1  0  0  0  0
 19 20  1  0  0  0  0
 15 20  1  0  0  0  0
 21 22  1  0  0  0  0
 20 21  1  1  0  0  0
 19 23  1  6  0  0  0
 18 24  1  1  0  0  0
 17 25  1  6  0  0  0
 16 14  1  1  0  0  0
 10 14  1  6  0  0  0
  2 26  1  1  0  0  0
  6 27  1  6  0  0  0
  5 28  1  6  0  0  0
  1 29  1  6  0  0  0
  4 30  1  1  0  0  0
 13 31  1  0  0  0  0
 32 33  2  0  0  0  0
 33 34  1  0  0  0  0
 34 35  2  0  0  0  0
 35 36  1  0  0  0  0
 36 37  2  0  0  0  0
 37 32  1  0  0  0  0
 32 38  1  0  0  0  0
 37 39  1  0  0  0  0
 36 40  1  0  0  0  0
 38 41  1  0  0  0  0
 40 42  1  0  0  0  0
 34 43  1  0  0  0  0
 43 22  1  0  0  0  0
M  END
>  <cdx:fragmentId>
5

$$$$
