992069.cdx
  Mrv1902 05222410242D          

 38 41  0  0  0  0            999 V2000
    5.0591   -5.6658    0.0000 C   0  0  0  0  0  0  0  0  0  0  0  0
    4.3049   -6.0002    0.0000 C   0  0  0  0  0  0  0  0  0  0  0  0
    4.2173   -6.8205    0.0000 C   0  0  0  0  0  0  0  0  0  0  0  0
    3.4631   -7.1548    0.0000 C   0  0  0  0  0  0  0  0  0  0  0  0
    2.7964   -6.6688    0.0000 C   0  0  0  0  0  0  0  0  0  0  0  0
    2.8840   -5.8484    0.0000 C   0  0  0  0  0  0  0  0  0  0  0  0
    3.6383   -5.5141    0.0000 C   0  0  0  0  0  0  0  0  0  0  0  0
    5.1248   -5.0506    0.0000 O   0  0  0  0  0  0  0  0  0  0  0  0
    5.7258   -6.1519    0.0000 O   0  0  0  0  0  0  0  0  0  0  0  0
    7.2569   -6.8711    0.0000 C   0  0  0  0  0  0  0  0  0  0  0  0
    7.2727   -6.0463    0.0000 C   0  0  0  0  0  0  0  0  0  0  0  0
    6.4800   -5.8176    0.0000 C   0  0  0  0  0  0  0  0  0  0  0  0
    6.2817   -5.0167    0.0000 C   0  0  0  0  0  0  0  0  0  0  0  0
    6.8761   -4.4446    0.0000 C   0  0  0  0  0  0  0  0  0  0  0  0
    7.6688   -4.6733    0.0000 C   0  0  0  0  0  0  0  0  0  0  0  0
    7.8671   -5.4742    0.0000 C   0  0  0  0  0  0  0  0  0  0  0  0
    8.6919   -5.4899    0.0000 C   0  0  0  0  0  0  0  0  0  0  0  0
    9.2640   -6.0843    0.0000 C   0  0  1  0  0  0  0  0  0  0  0  0
    9.2483   -6.9092    0.0000 C   0  0  1  0  0  0  0  0  0  0  0  0
    8.6539   -7.4813    0.0000 C   0  0  0  0  0  0  0  0  0  0  0  0
    7.8290   -7.4655    0.0000 C   0  0  0  0  0  0  0  0  0  0  0  0
    7.6003   -8.2582    0.0000 C   0  0  0  0  0  0  0  0  0  0  0  0
    6.7995   -8.4564    0.0000 C   0  0  0  0  0  0  0  0  0  0  0  0
    6.2274   -7.8620    0.0000 C   0  0  0  0  0  0  0  0  0  0  0  0
    6.4561   -7.0694    0.0000 C   0  0  0  0  0  0  0  0  0  0  0  0
    9.8316   -7.4925    0.0000 C   0  0  0  0  0  0  0  0  0  0  0  0
   10.0321   -5.7832    0.0000 C   0  0  0  0  0  0  0  0  0  0  0  0
    5.7152   -6.7065    0.0000 O   0  0  0  0  0  0  0  0  0  0  0  0
    5.0304   -7.1667    0.0000 C   0  0  0  0  0  0  0  0  0  0  0  0
    5.4265   -8.0603    0.0000 O   0  0  0  0  0  0  0  0  0  0  0  0
    5.1978   -8.8530    0.0000 C   0  0  0  0  0  0  0  0  0  0  0  0
    6.5708   -9.2491    0.0000 O   0  0  0  0  0  0  0  0  0  0  0  0
    5.7699   -9.4474    0.0000 C   0  0  0  0  0  0  0  0  0  0  0  0
    6.6779   -3.6438    0.0000 O   0  0  0  0  0  0  0  0  0  0  0  0
    7.2723   -3.0717    0.0000 C   0  0  0  0  0  0  0  0  0  0  0  0
    5.4891   -4.7880    0.0000 O   0  0  0  0  0  0  0  0  0  0  0  0
    5.2908   -3.9872    0.0000 C   0  0  0  0  0  0  0  0  0  0  0  0
   10.0681   -6.8171    0.0000 O   0  0  0  0  0  0  0  0  0  0  0  0
  1  2  1  0  0  0  0
  2  3  1  0  0  0  0
  3  4  2  0  0  0  0
  4  5  1  0  0  0  0
  5  6  2  0  0  0  0
  6  7  1  0  0  0  0
  2  7  2  0  0  0  0
  1  8  2  0  0  0  0
  1  9  1  0  0  0  0
 10 11  1  0  0  0  0
 11 12  2  0  0  0  0
 12 13  1  0  0  0  0
 13 14  2  0  0  0  0
 14 15  1  0  0  0  0
 15 16  2  0  0  0  0
 16 17  1  0  0  0  0
 17 18  1  0  0  0  0
 18 19  1  0  0  0  0
 19 20  1  0  0  0  0
 20 21  1  0  0  0  0
 21 22  2  0  0  0  0
 22 23  1  0  0  0  0
 23 24  2  0  0  0  0
 24 25  1  0  0  0  0
 10 25  2  0  0  0  0
 10 21  1  0  0  0  0
 11 16  1  0  0  0  0
 19 26  1  6  0  0  0
 18 27  1  6  0  0  0
 28 29  1  0  0  0  0
 25 28  1  0  0  0  0
 30 31  1  0  0  0  0
 24 30  1  0  0  0  0
 32 33  1  0  0  0  0
 23 32  1  0  0  0  0
 34 35  1  0  0  0  0
 14 34  1  0  0  0  0
 36 37  1  0  0  0  0
 13 36  1  0  0  0  0
 19 38  1  1  0  0  0
  9 12  1  0  0  0  0
M  END
>  <cdx:fragmentId>
110400

$$$$
