992092.cdx
  Mrv1902 05222410242D          

 36 39  0  0  0  0            999 V2000
    4.1973   -9.2231    0.0000 C   0  0  0  0  0  0  0  0  0  0  0  0
    3.4828   -9.6356    0.0000 C   0  0  0  0  0  0  0  0  0  0  0  0
    3.4828  -10.4606    0.0000 C   0  0  0  0  0  0  0  0  0  0  0  0
    4.1973  -10.8731    0.0000 C   0  0  0  0  0  0  0  0  0  0  0  0
    4.9117  -10.4606    0.0000 C   0  0  2  0  0  0  0  0  0  0  0  0
    5.6262  -10.8731    0.0000 C   0  0  0  0  0  0  0  0  0  0  0  0
    6.3407  -10.4606    0.0000 C   0  0  0  0  0  0  0  0  0  0  0  0
    6.3407   -9.6356    0.0000 C   0  0  1  0  0  0  0  0  0  0  0  0
    7.0551   -9.2231    0.0000 C   0  0  2  0  0  0  0  0  0  0  0  0
    7.8398   -9.4780    0.0000 C   0  0  0  0  0  0  0  0  0  0  0  0
    8.3247   -8.8106    0.0000 C   0  0  0  0  0  0  0  0  0  0  0  0
    7.8398   -8.1431    0.0000 C   0  0  1  0  0  0  0  0  0  0  0  0
    7.0551   -8.3981    0.0000 C   0  0  1  0  0  0  0  0  0  0  0  0
    6.3407   -7.9856    0.0000 C   0  0  0  0  0  0  0  0  0  0  0  0
    5.6262   -8.3981    0.0000 C   0  0  0  0  0  0  0  0  0  0  0  0
    5.6262   -9.2231    0.0000 C   0  0  2  0  0  0  0  0  0  0  0  0
    4.9117   -9.6356    0.0000 C   0  0  1  0  0  0  0  0  0  0  0  0
    2.7683  -10.8731    0.0000 O   0  0  0  0  0  0  0  0  0  0  0  0
    5.6262  -11.6981    0.0000 O   0  0  0  0  0  0  0  0  0  0  0  0
    7.0551   -7.5731    0.0000 C   0  0  0  0  0  0  0  0  0  0  0  0
    4.9117   -8.8106    0.0000 C   0  0  0  0  0  0  0  0  0  0  0  0
    7.5427   -6.7454    0.0000 C   0  0  0  0  0  0  0  0  0  0  0  0
    8.0947   -7.3585    0.0000 C   0  0  2  0  0  0  0  0  0  0  0  0
    8.9017   -7.1870    0.0000 C   0  0  0  0  0  0  0  0  0  0  0  0
    9.1566   -6.4024    0.0000 C   0  0  0  0  0  0  0  0  0  0  0  0
    9.9636   -6.2308    0.0000 C   0  0  2  0  0  0  0  0  0  0  0  0
   10.2185   -5.4462    0.0000 C   0  0  0  0  0  0  0  0  0  0  0  0
    9.6665   -4.8331    0.0000 C   0  0  0  0  0  0  0  0  0  0  0  0
   11.0255   -5.2747    0.0000 C   0  0  0  0  0  0  0  0  0  0  0  0
   10.5156   -6.8439    0.0000 C   0  0  0  0  0  0  0  0  0  0  0  0
   11.3226   -6.6724    0.0000 C   0  0  0  0  0  0  0  0  0  0  0  0
    4.9117  -11.2856    0.0000 H   0  0  0  0  0  0  0  0  0  0  0  0
    6.3407   -8.8106    0.0000 H   0  0  0  0  0  0  0  0  0  0  0  0
    5.6262  -10.0481    0.0000 H   0  0  0  0  0  0  0  0  0  0  0  0
    7.0551  -10.0481    0.0000 H   0  0  0  0  0  0  0  0  0  0  0  0
    8.6244   -7.8882    0.0000 H   0  0  0  0  0  0  0  0  0  0  0  0
  1  2  1  0  0  0  0
  2  3  1  0  0  0  0
  3  4  1  0  0  0  0
  4  5  1  0  0  0  0
  5  6  1  0  0  0  0
  6  7  1  0  0  0  0
  7  8  1  0  0  0  0
  8  9  1  0  0  0  0
  9 10  1  0  0  0  0
 10 11  1  0  0  0  0
 12 11  1  0  0  0  0
 12 13  1  0  0  0  0
  9 13  1  0  0  0  0
 13 14  1  0  0  0  0
 14 15  1  0  0  0  0
 15 16  1  0  0  0  0
  8 16  1  0  0  0  0
 16 17  1  0  0  0  0
  5 17  1  0  0  0  0
  1 17  1  0  0  0  0
  3 18  2  0  0  0  0
  6 19  2  0  0  0  0
 13 20  1  1  0  0  0
 17 21  1  1  0  0  0
 23 22  1  6  0  0  0
 23 24  1  0  0  0  0
 24 25  1  0  0  0  0
 26 25  1  6  0  0  0
 26 27  1  0  0  0  0
 27 28  1  0  0  0  0
 27 29  1  0  0  0  0
 30 31  1  0  0  0  0
 26 30  1  0  0  0  0
 12 23  1  0  0  0  0
  5 32  1  6  0  0  0
  8 33  1  1  0  0  0
 16 34  1  6  0  0  0
  9 35  1  6  0  0  0
 12 36  1  6  0  0  0
M  END
>  <cdx:fragmentId>
99770

$$$$
