99204.cdx
  Mrv1902 05222410192D          

 57 62  0  0  0  0            999 V2000
    7.6024   -7.4054    0.0000 C   0  0  0  0  0  0  0  0  0  0  0  0
    7.6024   -8.2304    0.0000 C   0  0  0  0  0  0  0  0  0  0  0  0
    6.8880   -8.6429    0.0000 C   0  0  0  0  0  0  0  0  0  0  0  0
    6.8880   -9.4679    0.0000 O   0  0  0  0  0  0  0  0  0  0  0  0
    6.1735   -8.2304    0.0000 C   0  0  0  0  0  0  0  0  0  0  0  0
    5.4590   -8.6429    0.0000 C   0  0  0  0  0  0  0  0  0  0  0  0
    5.4590   -9.4679    0.0000 O   0  0  0  0  0  0  0  0  0  0  0  0
    4.7446   -8.2304    0.0000 C   0  0  0  0  0  0  0  0  0  0  0  0
    4.7446   -7.4054    0.0000 C   0  0  0  0  0  0  0  0  0  0  0  0
    4.0301   -6.9929    0.0000 O   0  0  0  0  0  0  0  0  0  0  0  0
    5.4590   -6.9929    0.0000 C   0  0  0  0  0  0  0  0  0  0  0  0
    6.1735   -7.4054    0.0000 C   0  0  0  0  0  0  0  0  0  0  0  0
    6.8880   -6.9929    0.0000 O   0  0  0  0  0  0  0  0  0  0  0  0
    8.3169   -6.9929    0.0000 C   0  0  0  0  0  0  0  0  0  0  0  0
    8.3169   -6.1679    0.0000 C   0  0  0  0  0  0  0  0  0  0  0  0
    9.0314   -5.7554    0.0000 C   0  0  0  0  0  0  0  0  0  0  0  0
    9.7459   -6.1679    0.0000 C   0  0  0  0  0  0  0  0  0  0  0  0
   10.4603   -5.7554    0.0000 O   0  0  0  0  0  0  0  0  0  0  0  0
    9.7459   -6.9929    0.0000 C   0  0  0  0  0  0  0  0  0  0  0  0
    9.0314   -7.4054    0.0000 C   0  0  0  0  0  0  0  0  0  0  0  0
    3.3156   -7.4054    0.0000 C   0  0  0  0  0  0  0  0  0  0  0  0
    4.0301   -8.6429    0.0000 C   0  0  1  0  0  0  0  0  0  0  0  0
    4.0301   -9.4679    0.0000 C   0  0  2  0  0  0  0  0  0  0  0  0
    4.7446   -9.8804    0.0000 O   0  0  0  0  0  0  0  0  0  0  0  0
    3.3156   -9.8804    0.0000 C   0  0  1  0  0  0  0  0  0  0  0  0
    3.3156  -10.7054    0.0000 O   0  0  0  0  0  0  0  0  0  0  0  0
    2.6011   -9.4679    0.0000 C   0  0  2  0  0  0  0  0  0  0  0  0
    1.8867   -9.8804    0.0000 O   0  0  0  0  0  0  0  0  0  0  0  0
    2.6011   -8.6429    0.0000 C   0  0  2  0  0  0  0  0  0  0  0  0
    3.3156   -8.2304    0.0000 O   0  0  0  0  0  0  0  0  0  0  0  0
    1.8867   -8.2304    0.0000 C   0  0  0  0  0  0  0  0  0  0  0  0
    1.1722   -8.6429    0.0000 O   0  0  0  0  0  0  0  0  0  0  0  0
    4.0301   -7.8179    0.0000 H   0  0  0  0  0  0  0  0  0  0  0  0
   11.1748   -6.1679    0.0000 C   0  0  2  0  0  0  0  0  0  0  0  0
   11.1748   -6.9929    0.0000 O   0  0  0  0  0  0  0  0  0  0  0  0
   11.8893   -7.4054    0.0000 C   0  0  1  0  0  0  0  0  0  0  0  0
   12.6038   -6.9929    0.0000 C   0  0  2  0  0  0  0  0  0  0  0  0
   12.6038   -6.1679    0.0000 C   0  0  1  0  0  0  0  0  0  0  0  0
   11.8893   -5.7554    0.0000 C   0  0  1  0  0  0  0  0  0  0  0  0
   11.8893   -8.2304    0.0000 C   0  0  0  0  0  0  0  0  0  0  0  0
   13.3182   -5.7554    0.0000 O   0  0  0  0  0  0  0  0  0  0  0  0
   11.8893   -4.9304    0.0000 O   0  0  0  0  0  0  0  0  0  0  0  0
   13.3182   -7.4054    0.0000 O   0  0  0  0  0  0  0  0  0  0  0  0
   12.6038   -8.6429    0.0000 O   0  0  0  0  0  0  0  0  0  0  0  0
   12.6038   -9.4679    0.0000 C   0  0  0  0  0  0  0  0  0  0  0  0
   13.3183   -9.8804    0.0000 O   0  0  0  0  0  0  0  0  0  0  0  0
   11.8893   -9.8804    0.0000 C   0  0  0  0  0  0  0  0  0  0  0  0
   11.8893  -10.7054    0.0000 C   0  0  0  0  0  0  0  0  0  0  0  0
   11.1749  -11.1179    0.0000 C   0  0  0  0  0  0  0  0  0  0  0  0
   10.4604  -10.7054    0.0000 C   0  0  0  0  0  0  0  0  0  0  0  0
    9.7459  -11.1179    0.0000 C   0  0  0  0  0  0  0  0  0  0  0  0
    9.7459  -11.9429    0.0000 C   0  0  0  0  0  0  0  0  0  0  0  0
   10.4604  -12.3554    0.0000 C   0  0  0  0  0  0  0  0  0  0  0  0
   11.1749  -11.9429    0.0000 C   0  0  0  0  0  0  0  0  0  0  0  0
    9.0314  -12.3554    0.0000 O   0  0  0  0  0  0  0  0  0  0  0  0
   10.4604  -13.1804    0.0000 O   0  0  0  0  0  0  0  0  0  0  0  0
    9.7459  -13.5929    0.0000 C   0  0  0  0  0  0  0  0  0  0  0  0
  1  2  2  0  0  0  0
  2  3  1  0  0  0  0
  3  4  2  0  0  0  0
  3  5  1  0  0  0  0
  5  6  1  0  0  0  0
  6  7  1  0  0  0  0
  6  8  2  0  0  0  0
  8  9  1  0  0  0  0
  9 10  1  0  0  0  0
  9 11  2  0  0  0  0
 11 12  1  0  0  0  0
  5 12  2  0  0  0  0
 12 13  1  0  0  0  0
  1 13  1  0  0  0  0
  1 14  1  0  0  0  0
 14 15  1  0  0  0  0
 15 16  2  0  0  0  0
 16 17  1  0  0  0  0
 17 18  1  0  0  0  0
 17 19  2  0  0  0  0
 19 20  1  0  0  0  0
 14 20  2  0  0  0  0
 10 21  1  0  0  0  0
 22 23  1  0  0  0  0
 23 24  1  6  0  0  0
 23 25  1  0  0  0  0
 25 26  1  1  0  0  0
 25 27  1  0  0  0  0
 27 28  1  6  0  0  0
 27 29  1  0  0  0  0
 29 30  1  0  0  0  0
 29 31  1  1  0  0  0
 31 32  1  0  0  0  0
 22 30  1  0  0  0  0
  8 22  1  0  0  0  0
 22 33  1  6  0  0  0
 34 18  1  1  0  0  0
 34 35  1  0  0  0  0
 35 36  1  0  0  0  0
 36 37  1  0  0  0  0
 37 38  1  0  0  0  0
 38 39  1  0  0  0  0
 39 34  1  0  0  0  0
 36 40  1  1  0  0  0
 38 41  1  1  0  0  0
 39 42  1  6  0  0  0
 37 43  1  6  0  0  0
 40 44  1  0  0  0  0
 44 45  1  0  0  0  0
 45 46  2  0  0  0  0
 45 47  1  0  0  0  0
 47 48  2  0  0  0  0
 48 49  1  0  0  0  0
 49 50  2  0  0  0  0
 50 51  1  0  0  0  0
 51 52  2  0  0  0  0
 52 53  1  0  0  0  0
 53 54  2  0  0  0  0
 54 49  1  0  0  0  0
 52 55  1  0  0  0  0
 53 56  1  0  0  0  0
 56 57  1  0  0  0  0
M  END
>  <cdx:fragmentId>
3731

$$$$
