99210.cdx
  Mrv1902 05222410192D          

 45 49  0  0  0  0            999 V2000
    7.3832   -4.9860    0.0000 C   0  0  0  0  0  0  0  0  0  0  0  0
    7.3832   -5.8110    0.0000 C   0  0  0  0  0  0  0  0  0  0  0  0
    8.0977   -6.2235    0.0000 O   0  0  0  0  0  0  0  0  0  0  0  0
    6.6687   -6.2235    0.0000 C   0  0  0  0  0  0  0  0  0  0  0  0
    6.6687   -7.0485    0.0000 O   0  0  0  0  0  0  0  0  0  0  0  0
    5.9542   -5.8110    0.0000 C   0  0  0  0  0  0  0  0  0  0  0  0
    5.2398   -6.2235    0.0000 C   0  0  0  0  0  0  0  0  0  0  0  0
    5.2398   -7.0485    0.0000 O   0  0  0  0  0  0  0  0  0  0  0  0
    4.5253   -5.8110    0.0000 C   0  0  0  0  0  0  0  0  0  0  0  0
    4.5253   -4.9860    0.0000 C   0  0  0  0  0  0  0  0  0  0  0  0
    3.8108   -4.5735    0.0000 O   0  0  0  0  0  0  0  0  0  0  0  0
    5.2398   -4.5735    0.0000 C   0  0  0  0  0  0  0  0  0  0  0  0
    5.9542   -4.9860    0.0000 C   0  0  0  0  0  0  0  0  0  0  0  0
    6.6687   -4.5735    0.0000 O   0  0  0  0  0  0  0  0  0  0  0  0
    8.0977   -4.5735    0.0000 C   0  0  0  0  0  0  0  0  0  0  0  0
    8.8121   -4.9860    0.0000 C   0  0  0  0  0  0  0  0  0  0  0  0
    9.5266   -4.5735    0.0000 C   0  0  0  0  0  0  0  0  0  0  0  0
    9.5266   -3.7485    0.0000 C   0  0  0  0  0  0  0  0  0  0  0  0
   10.2411   -3.3360    0.0000 O   0  0  0  0  0  0  0  0  0  0  0  0
    8.8121   -3.3360    0.0000 C   0  0  0  0  0  0  0  0  0  0  0  0
    8.8121   -2.5110    0.0000 O   0  0  0  0  0  0  0  0  0  0  0  0
    8.0977   -3.7485    0.0000 C   0  0  0  0  0  0  0  0  0  0  0  0
   10.2411   -4.9860    0.0000 O   0  0  0  0  0  0  0  0  0  0  0  0
    7.3824   -8.2750    0.0000 C   0  0  2  0  0  0  0  0  0  0  0  0
    8.0969   -8.6874    0.0000 C   0  0  2  0  0  0  0  0  0  0  0  0
    8.8113   -8.2748    0.0000 C   0  0  1  0  0  0  0  0  0  0  0  0
    8.8112   -7.4498    0.0000 C   0  0  2  0  0  0  0  0  0  0  0  0
    8.0966   -7.0374    0.0000 C   0  0  1  0  0  0  0  0  0  0  0  0
    7.3822   -7.4500    0.0000 O   0  0  0  0  0  0  0  0  0  0  0  0
    6.6680   -8.6877    0.0000 C   0  0  0  0  0  0  0  0  0  0  0  0
    9.5259   -8.6871    0.0000 O   0  0  0  0  0  0  0  0  0  0  0  0
    8.0971   -9.5124    0.0000 O   0  0  0  0  0  0  0  0  0  0  0  0
    9.5256   -7.0371    0.0000 O   0  0  0  0  0  0  0  0  0  0  0  0
    6.6682   -9.5127    0.0000 O   0  0  0  0  0  0  0  0  0  0  0  0
    4.5287   -9.9222    0.0000 C   0  0  1  0  0  0  0  0  0  0  0  0
    4.5287  -10.7472    0.0000 C   0  0  1  0  0  0  0  0  0  0  0  0
    5.2431  -11.1597    0.0000 C   0  0  2  0  0  0  0  0  0  0  0  0
    5.9576  -10.7472    0.0000 C   0  0  2  0  0  0  0  0  0  0  0  0
    5.9576   -9.9222    0.0000 C   0  0  1  0  0  0  0  0  0  0  0  0
    5.2431   -9.5097    0.0000 O   0  0  0  0  0  0  0  0  0  0  0  0
    3.8142  -11.1597    0.0000 O   0  0  0  0  0  0  0  0  0  0  0  0
    3.8142   -9.5097    0.0000 C   0  0  0  0  0  0  0  0  0  0  0  0
    5.2431  -11.9847    0.0000 O   0  0  0  0  0  0  0  0  0  0  0  0
    6.6721  -11.1597    0.0000 O   0  0  0  0  0  0  0  0  0  0  0  0
    9.5266   -2.0985    0.0000 C   0  0  0  0  0  0  0  0  0  0  0  0
  1  2  2  0  0  0  0
  2  3  1  0  0  0  0
  2  4  1  0  0  0  0
  4  5  2  0  0  0  0
  4  6  1  0  0  0  0
  6  7  1  0  0  0  0
  7  8  1  0  0  0  0
  7  9  2  0  0  0  0
  9 10  1  0  0  0  0
 10 11  1  0  0  0  0
 10 12  2  0  0  0  0
 12 13  1  0  0  0  0
  6 13  2  0  0  0  0
 13 14  1  0  0  0  0
  1 14  1  0  0  0  0
  1 15  1  0  0  0  0
 15 16  2  0  0  0  0
 16 17  1  0  0  0  0
 17 18  2  0  0  0  0
 18 19  1  0  0  0  0
 18 20  1  0  0  0  0
 20 21  1  0  0  0  0
 20 22  2  0  0  0  0
 15 22  1  0  0  0  0
 17 23  1  0  0  0  0
 24 25  1  0  0  0  0
 25 26  1  0  0  0  0
 26 27  1  0  0  0  0
 27 28  1  0  0  0  0
 28 29  1  0  0  0  0
 29 24  1  0  0  0  0
 24 30  1  1  0  0  0
 26 31  1  1  0  0  0
 25 32  1  6  0  0  0
 27 33  1  6  0  0  0
 30 34  1  0  0  0  0
 28  3  1  1  0  0  0
 35 36  1  0  0  0  0
 36 37  1  0  0  0  0
 37 38  1  0  0  0  0
 38 39  1  0  0  0  0
 39 40  1  0  0  0  0
 40 35  1  0  0  0  0
 36 41  1  1  0  0  0
 35 42  1  6  0  0  0
 37 43  1  6  0  0  0
 38 44  1  6  0  0  0
 39 34  1  1  0  0  0
 21 45  1  0  0  0  0
M  END
>  <cdx:fragmentId>
5

$$$$
