99211.cdx
  Mrv1902 05222410182D          

 42 47  0  0  0  0            999 V2000
    9.3391   -7.0210    0.0000 C   0  0  0  0  0  0  0  0  0  0  0  0
    9.3391   -6.1960    0.0000 C   0  0  0  0  0  0  0  0  0  0  0  0
    8.6246   -5.7835    0.0000 C   0  0  0  0  0  0  0  0  0  0  0  0
    7.9101   -6.1960    0.0000 C   0  0  0  0  0  0  0  0  0  0  0  0
    7.1956   -5.7835    0.0000 C   0  0  0  0  0  0  0  0  0  0  0  0
    6.4812   -6.1960    0.0000 C   0  0  0  0  0  0  0  0  0  0  0  0
    6.4812   -7.0210    0.0000 C   0  0  0  0  0  0  0  0  0  0  0  0
    7.1956   -7.4335    0.0000 C   0  0  0  0  0  0  0  0  0  0  0  0
    7.9101   -7.0210    0.0000 C   0  0  0  0  0  0  0  0  0  0  0  0
    8.6246   -7.4335    0.0000 O   0  0  0  0  0  0  0  0  0  0  0  0
    8.6246   -4.9585    0.0000 O   0  0  0  0  0  0  0  0  0  0  0  0
   10.0535   -7.4335    0.0000 C   0  0  0  0  0  0  0  0  0  0  0  0
   10.7680   -7.0210    0.0000 C   0  0  0  0  0  0  0  0  0  0  0  0
   11.4825   -7.4335    0.0000 C   0  0  0  0  0  0  0  0  0  0  0  0
   11.4825   -8.2585    0.0000 C   0  0  0  0  0  0  0  0  0  0  0  0
   10.7680   -8.6710    0.0000 C   0  0  0  0  0  0  0  0  0  0  0  0
   10.0535   -8.2585    0.0000 C   0  0  0  0  0  0  0  0  0  0  0  0
   12.1969   -8.6710    0.0000 O   0  0  0  0  0  0  0  0  0  0  0  0
    5.7667   -7.4335    0.0000 O   0  0  0  0  0  0  0  0  0  0  0  0
    7.1956   -4.9585    0.0000 O   0  0  0  0  0  0  0  0  0  0  0  0
    7.1956   -8.2585    0.0000 C   0  0  0  0  0  0  0  0  0  0  0  0
    7.9101   -8.6710    0.0000 C   0  0  0  0  0  0  0  0  0  0  0  0
    7.9101   -9.4960    0.0000 C   0  0  0  0  0  0  0  0  0  0  0  0
    7.1956   -9.9085    0.0000 C   0  0  0  0  0  0  0  0  0  0  0  0
    6.4812   -9.4960    0.0000 C   0  0  0  0  0  0  0  0  0  0  0  0
    6.4812   -8.6710    0.0000 C   0  0  0  0  0  0  0  0  0  0  0  0
    8.6246   -8.2585    0.0000 O   0  0  0  0  0  0  0  0  0  0  0  0
    9.3391   -8.6710    0.0000 C   0  0  0  0  0  0  0  0  0  0  0  0
    5.7667   -9.9085    0.0000 C   0  0  0  0  0  0  0  0  0  0  0  0
    5.7667  -10.7335    0.0000 C   0  0  0  0  0  0  0  0  0  0  0  0
    5.0522  -11.1460    0.0000 C   0  0  0  0  0  0  0  0  0  0  0  0
    4.3378  -10.7335    0.0000 C   0  0  0  0  0  0  0  0  0  0  0  0
    3.6233  -11.1460    0.0000 C   0  0  0  0  0  0  0  0  0  0  0  0
    2.9088  -10.7335    0.0000 C   0  0  0  0  0  0  0  0  0  0  0  0
    2.9088   -9.9085    0.0000 C   0  0  0  0  0  0  0  0  0  0  0  0
    3.6233   -9.4960    0.0000 C   0  0  0  0  0  0  0  0  0  0  0  0
    4.3378   -9.9085    0.0000 C   0  0  0  0  0  0  0  0  0  0  0  0
    5.0522   -9.4960    0.0000 O   0  0  0  0  0  0  0  0  0  0  0  0
    5.0522  -11.9710    0.0000 O   0  0  0  0  0  0  0  0  0  0  0  0
    2.1944   -9.4960    0.0000 O   0  0  0  0  0  0  0  0  0  0  0  0
    3.6233  -11.9710    0.0000 O   0  0  0  0  0  0  0  0  0  0  0  0
    2.9088  -12.3835    0.0000 C   0  0  0  0  0  0  0  0  0  0  0  0
  1  2  2  0  0  0  0
  2  3  1  0  0  0  0
  3  4  1  0  0  0  0
  4  5  1  0  0  0  0
  5  6  2  0  0  0  0
  6  7  1  0  0  0  0
  7  8  2  0  0  0  0
  8  9  1  0  0  0  0
  4  9  2  0  0  0  0
  9 10  1  0  0  0  0
  1 10  1  0  0  0  0
  3 11  2  0  0  0  0
 12 13  1  0  0  0  0
 13 14  2  0  0  0  0
 14 15  1  0  0  0  0
 15 16  2  0  0  0  0
 16 17  1  0  0  0  0
 12 17  2  0  0  0  0
 15 18  1  0  0  0  0
  1 12  1  0  0  0  0
  7 19  1  0  0  0  0
  5 20  1  0  0  0  0
 21 22  1  0  0  0  0
 22 23  2  0  0  0  0
 23 24  1  0  0  0  0
 24 25  2  0  0  0  0
 25 26  1  0  0  0  0
 21 26  2  0  0  0  0
 27 28  1  0  0  0  0
 22 27  1  0  0  0  0
 29 30  2  0  0  0  0
 30 31  1  0  0  0  0
 31 32  1  0  0  0  0
 32 33  1  0  0  0  0
 33 34  2  0  0  0  0
 34 35  1  0  0  0  0
 35 36  2  0  0  0  0
 36 37  1  0  0  0  0
 32 37  2  0  0  0  0
 37 38  1  0  0  0  0
 29 38  1  0  0  0  0
 31 39  2  0  0  0  0
 35 40  1  0  0  0  0
 33 41  1  0  0  0  0
 25 29  1  0  0  0  0
  8 21  1  0  0  0  0
 41 42  1  0  0  0  0
M  END
>  <cdx:fragmentId>
61

$$$$
