99216.cdx
  Mrv1902 05222410202D          

 36 38  0  0  0  0            999 V2000
    6.2197   -8.8772    0.0000 C   0  0  2  0  0  0  0  0  0  0  0  0
    6.2197   -9.7022    0.0000 C   0  0  2  0  0  0  0  0  0  0  0  0
    6.9341  -10.1147    0.0000 C   0  0  1  0  0  0  0  0  0  0  0  0
    7.6486   -9.7022    0.0000 C   0  0  2  0  0  0  0  0  0  0  0  0
    7.6486   -8.8772    0.0000 C   0  0  1  0  0  0  0  0  0  0  0  0
    6.9341   -8.4647    0.0000 O   0  0  0  0  0  0  0  0  0  0  0  0
    5.5052   -8.4647    0.0000 C   0  0  0  0  0  0  0  0  0  0  0  0
    6.9341  -10.9397    0.0000 O   0  0  0  0  0  0  0  0  0  0  0  0
    8.3631   -8.4647    0.0000 O   0  0  0  0  0  0  0  0  0  0  0  0
    5.5052  -10.1147    0.0000 O   0  0  0  0  0  0  0  0  0  0  0  0
    8.3631  -10.1147    0.0000 O   0  0  0  0  0  0  0  0  0  0  0  0
    4.7907   -8.8772    0.0000 O   0  0  0  0  0  0  0  0  0  0  0  0
   10.5072   -8.8820    0.0000 C   0  0  0  0  0  0  0  0  0  0  0  0
   11.2225   -8.4711    0.0000 C   0  0  0  0  0  0  0  0  0  0  0  0
   11.2243   -7.6461    0.0000 C   0  0  0  0  0  0  0  0  0  0  0  0
   10.5107   -7.2320    0.0000 C   0  0  0  0  0  0  0  0  0  0  0  0
    9.7953   -7.6430    0.0000 C   0  0  0  0  0  0  0  0  0  0  0  0
    9.7936   -8.4680    0.0000 C   0  0  0  0  0  0  0  0  0  0  0  0
    9.0782   -8.8790    0.0000 C   0  0  0  0  0  0  0  0  0  0  0  0
    9.0765   -9.7040    0.0000 O   0  0  0  0  0  0  0  0  0  0  0  0
   11.9396   -7.2351    0.0000 O   0  0  0  0  0  0  0  0  0  0  0  0
   11.9361   -8.8851    0.0000 O   0  0  0  0  0  0  0  0  0  0  0  0
   11.9343   -9.7101    0.0000 C   0  0  0  0  0  0  0  0  0  0  0  0
    3.3462   -6.3937    0.0000 C   0  0  0  0  0  0  0  0  0  0  0  0
    3.3462   -7.2188    0.0000 C   0  0  0  0  0  0  0  0  0  0  0  0
    4.0606   -7.6313    0.0000 C   0  0  0  0  0  0  0  0  0  0  0  0
    4.7751   -7.2188    0.0000 C   0  0  0  0  0  0  0  0  0  0  0  0
    4.7751   -6.3937    0.0000 C   0  0  0  0  0  0  0  0  0  0  0  0
    4.0606   -5.9813    0.0000 C   0  0  0  0  0  0  0  0  0  0  0  0
    2.6317   -5.9813    0.0000 O   0  0  0  0  0  0  0  0  0  0  0  0
    4.0606   -5.1563    0.0000 O   0  0  0  0  0  0  0  0  0  0  0  0
    5.4896   -5.9813    0.0000 O   0  0  0  0  0  0  0  0  0  0  0  0
    4.0606   -8.4563    0.0000 C   0  0  0  0  0  0  0  0  0  0  0  0
    3.3462   -8.8688    0.0000 O   0  0  0  0  0  0  0  0  0  0  0  0
    1.9172   -6.3937    0.0000 C   0  0  0  0  0  0  0  0  0  0  0  0
    6.2041   -6.3937    0.0000 C   0  0  0  0  0  0  0  0  0  0  0  0
  1  2  1  0  0  0  0
  2  3  1  0  0  0  0
  3  4  1  0  0  0  0
  4  5  1  0  0  0  0
  5  6  1  0  0  0  0
  6  1  1  0  0  0  0
  1  7  1  1  0  0  0
  3  8  1  1  0  0  0
  5  9  1  1  0  0  0
  2 10  1  6  0  0  0
  4 11  1  6  0  0  0
  7 12  1  0  0  0  0
 13 14  2  0  0  0  0
 14 15  1  0  0  0  0
 15 16  2  0  0  0  0
 16 17  1  0  0  0  0
 17 18  2  0  0  0  0
 18 13  1  0  0  0  0
 18 19  1  0  0  0  0
 19 20  2  0  0  0  0
 15 21  1  0  0  0  0
 14 22  1  0  0  0  0
 22 23  1  0  0  0  0
 19  9  1  0  0  0  0
 24 25  2  0  0  0  0
 25 26  1  0  0  0  0
 26 27  2  0  0  0  0
 27 28  1  0  0  0  0
 28 29  2  0  0  0  0
 29 24  1  0  0  0  0
 24 30  1  0  0  0  0
 29 31  1  0  0  0  0
 28 32  1  0  0  0  0
 26 33  1  0  0  0  0
 33 34  2  0  0  0  0
 33 12  1  0  0  0  0
 30 35  1  0  0  0  0
 32 36  1  0  0  0  0
M  END
>  <cdx:fragmentId>
336

$$$$
