99215.cdx
  Mrv1902 05222410192D          

 26 27  0  0  0  0            999 V2000
   10.7569   -8.0019    0.0000 C   0  0  0  0  0  0  0  0  0  0  0  0
   11.4714   -8.4144    0.0000 C   0  0  0  0  0  0  0  0  0  0  0  0
   10.0424   -8.4144    0.0000 C   0  0  0  0  0  0  0  0  0  0  0  0
    9.3280   -8.0019    0.0000 O   0  0  0  0  0  0  0  0  0  0  0  0
    7.1822   -8.4097    0.0000 C   0  0  2  0  0  0  0  0  0  0  0  0
    7.1822   -9.2347    0.0000 C   0  0  2  0  0  0  0  0  0  0  0  0
    7.8966   -9.6472    0.0000 C   0  0  1  0  0  0  0  0  0  0  0  0
    8.6111   -9.2347    0.0000 C   0  0  2  0  0  0  0  0  0  0  0  0
    8.6111   -8.4097    0.0000 C   0  0  1  0  0  0  0  0  0  0  0  0
    7.8966   -7.9972    0.0000 O   0  0  0  0  0  0  0  0  0  0  0  0
    6.4677   -7.9972    0.0000 C   0  0  0  0  0  0  0  0  0  0  0  0
    7.8966  -10.4722    0.0000 O   0  0  0  0  0  0  0  0  0  0  0  0
    6.4677   -9.6472    0.0000 O   0  0  0  0  0  0  0  0  0  0  0  0
    9.3256   -9.6472    0.0000 O   0  0  0  0  0  0  0  0  0  0  0  0
    5.7532   -8.4097    0.0000 O   0  0  0  0  0  0  0  0  0  0  0  0
    4.3151   -6.7493    0.0000 C   0  0  2  0  0  0  0  0  0  0  0  0
    3.6001   -7.1609    0.0000 C   0  0  2  0  0  0  0  0  0  0  0  0
    3.5990   -7.9859    0.0000 C   0  0  1  0  0  0  0  0  0  0  0  0
    4.3130   -8.3993    0.0000 C   0  0  2  0  0  0  0  0  0  0  0  0
    5.0280   -7.9877    0.0000 C   0  0  1  0  0  0  0  0  0  0  0  0
    5.0290   -7.1627    0.0000 O   0  0  0  0  0  0  0  0  0  0  0  0
    4.3161   -5.9243    0.0000 C   0  0  0  0  0  0  0  0  0  0  0  0
    2.8840   -8.3975    0.0000 O   0  0  0  0  0  0  0  0  0  0  0  0
    2.8861   -6.7475    0.0000 O   0  0  0  0  0  0  0  0  0  0  0  0
    4.3119   -9.2243    0.0000 O   0  0  0  0  0  0  0  0  0  0  0  0
    3.6022   -5.5109    0.0000 O   0  0  0  0  0  0  0  0  0  0  0  0
  1  2  1  0  0  0  0
  1  3  1  0  0  0  0
  3  4  1  0  0  0  0
  5  6  1  0  0  0  0
  6  7  1  0  0  0  0
  7  8  1  0  0  0  0
  8  9  1  0  0  0  0
  9 10  1  0  0  0  0
 10  5  1  0  0  0  0
  5 11  1  1  0  0  0
  7 12  1  1  0  0  0
  6 13  1  6  0  0  0
  8 14  1  6  0  0  0
 11 15  1  0  0  0  0
 16 17  1  0  0  0  0
 17 18  1  0  0  0  0
 18 19  1  0  0  0  0
 19 20  1  0  0  0  0
 20 21  1  0  0  0  0
 21 16  1  0  0  0  0
 16 22  1  1  0  0  0
 18 23  1  1  0  0  0
 17 24  1  6  0  0  0
 19 25  1  6  0  0  0
 22 26  1  0  0  0  0
  9  4  1  1  0  0  0
 20 15  1  1  0  0  0
M  END
>  <cdx:fragmentId>
336

$$$$
