99219.cdx
  Mrv1902 05222410272D          

 59 65  0  0  0  0            999 V2000
    7.2719   -8.6094    0.0000 C   0  0  1  0  0  0  0  0  0  0  0  0
    7.2719   -7.7844    0.0000 C   0  0  0  0  0  0  0  0  0  0  0  0
    7.9863   -7.3719    0.0000 C   0  0  0  0  0  0  0  0  0  0  0  0
    7.9863   -9.0219    0.0000 C   0  0  2  0  0  0  0  0  0  0  0  0
    8.3988   -9.7363    0.0000 C   0  0  0  0  0  0  0  0  0  0  0  0
    7.5738   -9.7363    0.0000 C   0  0  0  0  0  0  0  0  0  0  0  0
    8.7008   -8.6094    0.0000 C   0  0  2  0  0  0  0  0  0  0  0  0
    8.7008   -9.4344    0.0000 H   0  0  0  0  0  0  0  0  0  0  0  0
    9.4153   -9.0219    0.0000 C   0  0  0  0  0  0  0  0  0  0  0  0
   10.1298   -8.6094    0.0000 C   0  0  0  0  0  0  0  0  0  0  0  0
   10.1298   -7.7844    0.0000 C   0  0  1  0  0  0  0  0  0  0  0  0
   10.1298   -6.9594    0.0000 C   0  0  0  0  0  0  0  0  0  0  0  0
   10.8442   -7.3719    0.0000 C   0  0  2  0  0  0  0  0  0  0  0  0
   10.8442   -8.1969    0.0000 C   0  0  0  0  0  0  0  0  0  0  0  0
   11.5587   -7.7844    0.0000 C   0  0  0  0  0  0  0  0  0  0  0  0
   12.2732   -7.3719    0.0000 C   0  0  0  0  0  0  0  0  0  0  0  0
   12.2732   -6.5469    0.0000 C   0  0  1  0  0  0  0  0  0  0  0  0
   12.9876   -6.9594    0.0000 C   0  0  0  0  0  0  0  0  0  0  0  0
   12.9876   -6.1344    0.0000 C   0  0  0  0  0  0  0  0  0  0  0  0
   12.9876   -5.3094    0.0000 C   0  0  0  0  0  0  0  0  0  0  0  0
   12.2732   -4.8969    0.0000 C   0  0  1  0  0  0  0  0  0  0  0  0
   12.2732   -4.0719    0.0000 C   0  0  0  0  0  0  0  0  0  0  0  0
   12.9876   -4.4844    0.0000 C   0  0  0  0  0  0  0  0  0  0  0  0
   11.5587   -5.3094    0.0000 C   0  0  0  0  0  0  0  0  0  0  0  0
   11.5587   -6.1344    0.0000 C   0  0  1  0  0  0  0  0  0  0  0  0
   11.5587   -6.9594    0.0000 H   0  0  0  0  0  0  0  0  0  0  0  0
   10.8442   -6.5469    0.0000 C   0  0  0  0  0  0  0  0  0  0  0  0
   10.1298   -6.1344    0.0000 C   0  0  0  0  0  0  0  0  0  0  0  0
    9.4153   -6.5469    0.0000 C   0  0  0  0  0  0  0  0  0  0  0  0
    9.4153   -7.3719    0.0000 C   0  0  0  0  0  0  0  0  0  0  0  0
    8.7008   -7.7844    0.0000 C   0  0  0  0  0  0  0  0  0  0  0  0
    8.7008   -6.9594    0.0000 C   0  0  0  0  0  0  0  0  0  0  0  0
   11.5587   -3.6594    0.0000 O   0  0  0  0  0  0  0  0  0  0  0  0
   12.9876   -3.6594    0.0000 O   0  0  0  0  0  0  0  0  0  0  0  0
    6.5574   -9.0219    0.0000 O   0  0  0  0  0  0  0  0  0  0  0  0
    5.1251   -7.3619    0.0000 C   0  0  2  0  0  0  0  0  0  0  0  0
    4.4106   -7.7743    0.0000 C   0  0  2  0  0  0  0  0  0  0  0  0
    4.4106   -8.5993    0.0000 C   0  0  1  0  0  0  0  0  0  0  0  0
    5.1250   -9.0119    0.0000 C   0  0  2  0  0  0  0  0  0  0  0  0
    5.8395   -8.5994    0.0000 C   0  0  1  0  0  0  0  0  0  0  0  0
    5.8396   -7.7744    0.0000 O   0  0  0  0  0  0  0  0  0  0  0  0
    5.1252   -6.5369    0.0000 C   0  0  0  0  0  0  0  0  0  0  0  0
    3.6961   -9.0118    0.0000 O   0  0  0  0  0  0  0  0  0  0  0  0
    3.6962   -7.3618    0.0000 O   0  0  0  0  0  0  0  0  0  0  0  0
    5.1250   -9.8369    0.0000 O   0  0  0  0  0  0  0  0  0  0  0  0
    4.4107   -6.1243    0.0000 O   0  0  0  0  0  0  0  0  0  0  0  0
    5.8397   -6.1244    0.0000 O   0  0  0  0  0  0  0  0  0  0  0  0
    2.9924  -10.2527    0.0000 C   0  0  2  0  0  0  0  0  0  0  0  0
    2.9955  -11.0777    0.0000 C   0  0  2  0  0  0  0  0  0  0  0  0
    3.7116  -11.4874    0.0000 C   0  0  1  0  0  0  0  0  0  0  0  0
    4.4245  -11.0722    0.0000 C   0  0  2  0  0  0  0  0  0  0  0  0
    4.4213  -10.2472    0.0000 C   0  0  1  0  0  0  0  0  0  0  0  0
    3.7052   -9.8375    0.0000 O   0  0  0  0  0  0  0  0  0  0  0  0
    2.2763   -9.8429    0.0000 C   0  0  0  0  0  0  0  0  0  0  0  0
    3.7147  -12.3124    0.0000 O   0  0  0  0  0  0  0  0  0  0  0  0
    2.2826  -11.4929    0.0000 O   0  0  0  0  0  0  0  0  0  0  0  0
    5.1405  -11.4820    0.0000 O   0  0  0  0  0  0  0  0  0  0  0  0
    1.5634  -10.2582    0.0000 O   0  0  0  0  0  0  0  0  0  0  0  0
    2.2731   -9.0179    0.0000 O   0  0  0  0  0  0  0  0  0  0  0  0
  1  2  1  0  0  0  0
  2  3  1  0  0  0  0
  1  4  1  0  0  0  0
  4  5  1  6  0  0  0
  4  6  1  1  0  0  0
  4  7  1  0  0  0  0
  7  8  1  6  0  0  0
  7  9  1  0  0  0  0
  9 10  1  0  0  0  0
 10 11  1  0  0  0  0
 11 12  1  1  0  0  0
 11 13  1  0  0  0  0
 13 14  1  6  0  0  0
 13 15  1  0  0  0  0
 15 16  1  0  0  0  0
 16 17  1  0  0  0  0
 17 18  1  1  0  0  0
 17 19  1  0  0  0  0
 19 20  1  0  0  0  0
 20 21  1  0  0  0  0
 21 22  1  0  0  0  0
 21 23  1  6  0  0  0
 21 24  1  0  0  0  0
 24 25  1  0  0  0  0
 25 26  1  1  0  0  0
 17 25  1  0  0  0  0
 25 27  1  0  0  0  0
 13 27  1  0  0  0  0
 27 28  2  0  0  0  0
 28 29  1  0  0  0  0
 29 30  2  0  0  0  0
 11 30  1  0  0  0  0
 30 31  1  0  0  0  0
  3 31  1  0  0  0  0
  7 31  1  0  0  0  0
 31 32  1  0  0  0  0
 22 33  2  0  0  0  0
 22 34  1  0  0  0  0
  1 35  1  1  0  0  0
 36 37  1  0  0  0  0
 37 38  1  0  0  0  0
 38 39  1  0  0  0  0
 39 40  1  0  0  0  0
 40 41  1  0  0  0  0
 41 36  1  0  0  0  0
 36 42  1  1  0  0  0
 38 43  1  1  0  0  0
 37 44  1  6  0  0  0
 39 45  1  6  0  0  0
 42 46  1  0  0  0  0
 42 47  2  0  0  0  0
 48 49  1  0  0  0  0
 49 50  1  0  0  0  0
 50 51  1  0  0  0  0
 51 52  1  0  0  0  0
 52 53  1  0  0  0  0
 53 48  1  0  0  0  0
 48 54  1  1  0  0  0
 50 55  1  1  0  0  0
 49 56  1  6  0  0  0
 51 57  1  6  0  0  0
 54 58  1  0  0  0  0
 52 45  1  1  0  0  0
 40 35  1  1  0  0  0
 54 59  2  0  0  0  0
M  END
>  <cdx:fragmentId>
5

$$$$
