99220.cdx
  Mrv1902 05222410272D          

 15 14  0  0  0  0            999 V2000
    9.7260   -8.7672    0.0000 C   0  0  0  0  0  0  0  0  0  0  0  0
    9.0115   -9.1797    0.0000 C   0  0  0  0  0  0  0  0  0  0  0  0
    8.2970   -8.7672    0.0000 C   0  0  0  0  0  0  0  0  0  0  0  0
    7.5826   -9.1797    0.0000 C   0  0  0  0  0  0  0  0  0  0  0  0
    6.8681   -8.7672    0.0000 C   0  0  0  0  0  0  0  0  0  0  0  0
    6.1536   -9.1797    0.0000 C   0  0  0  0  0  0  0  0  0  0  0  0
    5.4392   -8.7672    0.0000 C   0  0  0  0  0  0  0  0  0  0  0  0
    4.7247   -9.1797    0.0000 C   0  0  0  0  0  0  0  0  0  0  0  0
    9.7260   -7.9422    0.0000 O   0  0  0  0  0  0  0  0  0  0  0  0
   10.4404   -9.1797    0.0000 O   0  0  0  0  0  0  0  0  0  0  0  0
    9.0115  -10.0047    0.0000 C   0  0  0  0  0  0  0  0  0  0  0  0
    6.1536  -10.0047    0.0000 C   0  0  0  0  0  0  0  0  0  0  0  0
    4.0102   -8.7672    0.0000 O   0  0  0  0  0  0  0  0  0  0  0  0
    3.2957   -9.1797    0.0000 C   0  0  0  0  0  0  0  0  0  0  0  0
    2.5813   -8.7672    0.0000 O   0  0  0  0  0  0  0  0  0  0  0  0
  1  2  1  0  0  0  0
  2  3  2  0  0  0  0
  3  4  1  0  0  0  0
  4  5  1  0  0  0  0
  5  6  1  0  0  0  0
  6  7  2  0  0  0  0
  7  8  1  0  0  0  0
  1  9  2  0  0  0  0
  1 10  1  0  0  0  0
  2 11  1  0  0  0  0
  6 12  1  0  0  0  0
  8 13  1  0  0  0  0
 13 14  1  0  0  0  0
 14 15  2  0  0  0  0
M  END
>  <cdx:fragmentId>
5

$$$$
