99224.cdx
  Mrv1902 05222410262D          

 59 60  0  0  0  0            999 V2000
    5.5940   -7.0566    0.0000 C   0  0  2  0  0  0  0  0  0  0  0  0
    6.0093   -6.7872    0.0000 C   0  0  0  0  0  0  0  0  0  0  0  0
    6.4502   -7.0122    0.0000 C   0  0  0  0  0  0  0  0  0  0  0  0
    6.4758   -7.5065    0.0000 C   0  0  0  0  0  0  0  0  0  0  0  0
    6.0605   -7.7759    0.0000 C   0  0  0  0  0  0  0  0  0  0  0  0
    5.6196   -7.5509    0.0000 C   0  0  0  0  0  0  0  0  0  0  0  0
    5.1530   -6.8316    0.0000 O   0  0  0  0  0  0  0  0  0  0  0  0
    6.3299   -8.1912    0.0000 C   0  0  0  0  0  0  0  0  0  0  0  0
    5.8356   -8.2168    0.0000 C   0  0  0  0  0  0  0  0  0  0  0  0
    6.8655   -6.7428    0.0000 C   0  0  0  0  0  0  0  0  0  0  0  0
    6.9168   -7.7315    0.0000 C   0  0  0  0  0  0  0  0  0  0  0  0
    6.9424   -8.2258    0.0000 C   0  0  0  0  0  0  0  0  0  0  0  0
    7.3833   -8.4508    0.0000 C   0  0  0  0  0  0  0  0  0  0  0  0
    7.4090   -8.9451    0.0000 C   0  0  0  0  0  0  0  0  0  0  0  0
    7.8499   -9.1701    0.0000 C   0  0  0  0  0  0  0  0  0  0  0  0
    7.8755   -9.6644    0.0000 C   0  0  0  0  0  0  0  0  0  0  0  0
    8.3165   -9.8894    0.0000 C   0  0  0  0  0  0  0  0  0  0  0  0
    8.3421  -10.3837    0.0000 C   0  0  0  0  0  0  0  0  0  0  0  0
    8.7830  -10.6087    0.0000 C   0  0  0  0  0  0  0  0  0  0  0  0
    8.8087  -11.1030    0.0000 C   0  0  0  0  0  0  0  0  0  0  0  0
    9.2496  -11.3280    0.0000 C   0  0  0  0  0  0  0  0  0  0  0  0
    9.2752  -11.8223    0.0000 C   0  0  0  0  0  0  0  0  0  0  0  0
    9.7162  -12.0473    0.0000 C   0  0  0  0  0  0  0  0  0  0  0  0
    9.7418  -12.5416    0.0000 C   0  0  0  0  0  0  0  0  0  0  0  0
   10.1827  -12.7666    0.0000 C   0  0  0  0  0  0  0  0  0  0  0  0
   10.2084  -13.2609    0.0000 C   0  0  0  0  0  0  0  0  0  0  0  0
   10.6493  -13.4858    0.0000 C   0  0  0  0  0  0  0  0  0  0  0  0
   10.6750  -13.9802    0.0000 C   0  0  0  0  0  0  0  0  0  0  0  0
    9.7931  -13.5303    0.0000 C   0  0  0  0  0  0  0  0  0  0  0  0
    8.8600  -12.0917    0.0000 C   0  0  0  0  0  0  0  0  0  0  0  0
    8.7318   -9.6200    0.0000 C   0  0  0  0  0  0  0  0  0  0  0  0
    7.7986   -8.1814    0.0000 C   0  0  0  0  0  0  0  0  0  0  0  0
   11.1159  -14.2051    0.0000 C   0  0  1  0  0  0  0  0  0  0  0  0
   11.1415  -14.6995    0.0000 C   0  0  0  0  0  0  0  0  0  0  0  0
   11.5825  -14.9244    0.0000 C   0  0  0  0  0  0  0  0  0  0  0  0
   11.9977  -14.6551    0.0000 C   0  0  1  0  0  0  0  0  0  0  0  0
   11.9721  -14.1607    0.0000 C   0  0  0  0  0  0  0  0  0  0  0  0
   11.5312  -13.9358    0.0000 C   0  0  0  0  0  0  0  0  0  0  0  0
   11.2618  -13.5205    0.0000 C   0  0  0  0  0  0  0  0  0  0  0  0
   11.7561  -13.4948    0.0000 C   0  0  0  0  0  0  0  0  0  0  0  0
   10.7262  -14.9689    0.0000 C   0  0  0  0  0  0  0  0  0  0  0  0
   12.4387  -14.8800    0.0000 O   0  0  0  0  0  0  0  0  0  0  0  0
    5.1354   -6.3345    0.0000 C   0  0  0  0  0  0  0  0  0  0  0  0
    4.6950   -6.1087    0.0000 C   0  0  0  0  0  0  0  0  0  0  0  0
    4.6703   -5.6143    0.0000 C   0  0  0  0  0  0  0  0  0  0  0  0
    4.2299   -5.3884    0.0000 C   0  0  0  0  0  0  0  0  0  0  0  0
    4.2052   -4.8940    0.0000 C   0  0  0  0  0  0  0  0  0  0  0  0
    3.7648   -4.6682    0.0000 C   0  0  0  0  0  0  0  0  0  0  0  0
    3.7401   -4.1738    0.0000 C   0  0  0  0  0  0  0  0  0  0  0  0
    3.2997   -3.9479    0.0000 C   0  0  0  0  0  0  0  0  0  0  0  0
    3.2750   -3.4535    0.0000 C   0  0  0  0  0  0  0  0  0  0  0  0
    2.8346   -3.2277    0.0000 C   0  0  0  0  0  0  0  0  0  0  0  0
    2.8099   -2.7333    0.0000 C   0  0  0  0  0  0  0  0  0  0  0  0
    2.3695   -2.5074    0.0000 C   0  0  0  0  0  0  0  0  0  0  0  0
    2.3448   -2.0130    0.0000 C   0  0  0  0  0  0  0  0  0  0  0  0
    1.9044   -1.7872    0.0000 C   0  0  0  0  0  0  0  0  0  0  0  0
    1.8797   -1.2928    0.0000 C   0  0  0  0  0  0  0  0  0  0  0  0
    1.4393   -1.0669    0.0000 C   0  0  0  0  0  0  0  0  0  0  0  0
    5.5513   -6.0660    0.0000 O   0  0  0  0  0  0  0  0  0  0  0  0
  1  2  1  0  0  0  0
  2  3  1  0  0  0  0
  3  4  2  0  0  0  0
  4  5  1  0  0  0  0
  5  6  1  0  0  0  0
  1  6  1  0  0  0  0
  1  7  1  6  0  0  0
  5  8  1  0  0  0  0
  5  9  1  0  0  0  0
  3 10  1  0  0  0  0
 11 12  2  0  0  0  0
 12 13  1  0  0  0  0
 13 14  2  0  0  0  0
 14 15  1  0  0  0  0
 15 16  2  0  0  0  0
 16 17  1  0  0  0  0
 17 18  2  0  0  0  0
 18 19  1  0  0  0  0
 19 20  2  0  0  0  0
 20 21  1  0  0  0  0
 21 22  2  0  0  0  0
 22 23  1  0  0  0  0
 23 24  2  0  0  0  0
 24 25  1  0  0  0  0
 25 26  2  0  0  0  0
 26 27  1  0  0  0  0
 27 28  2  0  0  0  0
 26 29  1  0  0  0  0
 22 30  1  0  0  0  0
 17 31  1  0  0  0  0
 13 32  1  0  0  0  0
 33 34  1  0  0  0  0
 34 35  2  0  0  0  0
 35 36  1  0  0  0  0
 36 37  1  0  0  0  0
 37 38  1  0  0  0  0
 33 38  1  0  0  0  0
 38 39  1  0  0  0  0
 38 40  1  0  0  0  0
 34 41  1  0  0  0  0
 36 42  1  1  0  0  0
 33 28  1  6  0  0  0
  4 11  1  0  0  0  0
 43 44  1  0  0  0  0
 44 45  1  0  0  0  0
 45 46  1  0  0  0  0
 46 47  1  0  0  0  0
 47 48  1  0  0  0  0
 48 49  1  0  0  0  0
 49 50  1  0  0  0  0
 50 51  1  0  0  0  0
 51 52  1  0  0  0  0
 52 53  1  0  0  0  0
 53 54  1  0  0  0  0
 54 55  1  0  0  0  0
 55 56  1  0  0  0  0
 56 57  1  0  0  0  0
 57 58  1  0  0  0  0
 43 59  2  0  0  0  0
 43  7  1  0  0  0  0
M  END
>  <cdx:fragmentId>
25

$$$$
