99221.cdx
  Mrv1902 05222410272D          

 15 14  0  0  0  0            999 V2000
    8.8359   -8.6710    0.0000 C   0  0  0  0  0  0  0  0  0  0  0  0
    8.1215   -9.0835    0.0000 C   0  0  0  0  0  0  0  0  0  0  0  0
    7.4070   -8.6710    0.0000 C   0  0  0  0  0  0  0  0  0  0  0  0
    6.6925   -9.0835    0.0000 C   0  0  0  0  0  0  0  0  0  0  0  0
    5.9780   -8.6710    0.0000 C   0  0  0  0  0  0  0  0  0  0  0  0
    5.2636   -9.0835    0.0000 C   0  0  0  0  0  0  0  0  0  0  0  0
    4.5491   -8.6710    0.0000 C   0  0  0  0  0  0  0  0  0  0  0  0
    4.5491   -7.8460    0.0000 C   0  0  0  0  0  0  0  0  0  0  0  0
    8.8359   -7.8460    0.0000 O   0  0  0  0  0  0  0  0  0  0  0  0
    9.5504   -9.0835    0.0000 O   0  0  0  0  0  0  0  0  0  0  0  0
    8.1215   -9.9085    0.0000 C   0  0  0  0  0  0  0  0  0  0  0  0
    5.2636   -9.9085    0.0000 C   0  0  0  0  0  0  0  0  0  0  0  0
    3.8346   -7.4335    0.0000 O   0  0  0  0  0  0  0  0  0  0  0  0
    3.8346   -6.6085    0.0000 C   0  0  0  0  0  0  0  0  0  0  0  0
    3.1202   -6.1960    0.0000 O   0  0  0  0  0  0  0  0  0  0  0  0
  1  2  1  0  0  0  0
  2  3  2  0  0  0  0
  3  4  1  0  0  0  0
  4  5  1  0  0  0  0
  5  6  1  0  0  0  0
  6  7  2  0  0  0  0
  7  8  1  0  0  0  0
  1  9  2  0  0  0  0
  1 10  1  0  0  0  0
  2 11  1  0  0  0  0
  6 12  1  0  0  0  0
  8 13  1  0  0  0  0
 13 14  1  0  0  0  0
 14 15  2  0  0  0  0
M  END
>  <cdx:fragmentId>
5

$$$$
