99226.cdx
  Mrv1902 05222410262D          

 21 23  0  0  0  0            999 V2000
    8.1766   -6.5088    0.0000 O   0  0  0  0  0  0  0  0  0  0  0  0
    9.6055   -8.9838    0.0000 O   0  0  0  0  0  0  0  0  0  0  0  0
    3.8898   -8.9838    0.0000 C   0  0  0  0  0  0  0  0  0  0  0  0
    4.6042   -6.0963    0.0000 C   0  0  0  0  0  0  0  0  0  0  0  0
    5.3187   -6.5088    0.0000 O   0  0  0  0  0  0  0  0  0  0  0  0
    6.7476   -9.8088    0.0000 O   0  0  0  0  0  0  0  0  0  0  0  0
    6.7476   -6.5088    0.0000 O   0  0  0  0  0  0  0  0  0  0  0  0
    6.0332   -7.7463    0.0000 C   0  0  0  0  0  0  0  0  0  0  0  0
    6.7476   -7.3338    0.0000 C   0  0  0  0  0  0  0  0  0  0  0  0
    7.4621   -7.7463    0.0000 C   0  0  0  0  0  0  0  0  0  0  0  0
    8.1766   -7.3338    0.0000 C   0  0  0  0  0  0  0  0  0  0  0  0
    8.8911   -7.7463    0.0000 C   0  0  0  0  0  0  0  0  0  0  0  0
    8.8911   -8.5713    0.0000 C   0  0  0  0  0  0  0  0  0  0  0  0
    8.1766   -8.9838    0.0000 C   0  0  0  0  0  0  0  0  0  0  0  0
    7.4621   -8.5713    0.0000 C   0  0  0  0  0  0  0  0  0  0  0  0
    6.7476   -8.9838    0.0000 C   0  0  0  0  0  0  0  0  0  0  0  0
    6.0332   -8.5713    0.0000 C   0  0  0  0  0  0  0  0  0  0  0  0
    5.3187   -8.9838    0.0000 C   0  0  0  0  0  0  0  0  0  0  0  0
    4.6042   -8.5713    0.0000 C   0  0  0  0  0  0  0  0  0  0  0  0
    4.6042   -7.7463    0.0000 C   0  0  0  0  0  0  0  0  0  0  0  0
    5.3187   -7.3338    0.0000 C   0  0  0  0  0  0  0  0  0  0  0  0
 11  1  1  0  0  0  0
 13  2  1  0  0  0  0
 19  3  1  0  0  0  0
  5  4  1  0  0  0  0
 21  5  1  0  0  0  0
 16  6  2  0  0  0  0
  9  7  2  0  0  0  0
 21  8  2  0  0  0  0
 17  8  1  0  0  0  0
  9  8  1  0  0  0  0
 10  9  1  0  0  0  0
 15 10  2  0  0  0  0
 11 10  1  0  0  0  0
 12 11  2  0  0  0  0
 13 12  1  0  0  0  0
 14 13  2  0  0  0  0
 15 14  1  0  0  0  0
 16 15  1  0  0  0  0
 17 16  1  0  0  0  0
 18 17  2  0  0  0  0
 19 18  1  0  0  0  0
 20 19  2  0  0  0  0
 21 20  1  0  0  0  0
M  END
>  <cdx:fragmentId>
5

$$$$
