99227.cdx
  Mrv1902 05222410262D          

 16 16  0  0  0  0            999 V2000
    5.9999   -8.3462    0.0000 C   0  0  2  0  0  0  0  0  0  0  0  0
    5.9999   -9.1713    0.0000 C   0  0  2  0  0  0  0  0  0  0  0  0
    6.7144   -9.5838    0.0000 C   0  0  0  0  0  0  0  0  0  0  0  0
    7.4289   -9.1713    0.0000 C   0  0  2  0  0  0  0  0  0  0  0  0
    7.4289   -8.3462    0.0000 C   0  0  0  0  0  0  0  0  0  0  0  0
    6.7144   -7.9337    0.0000 C   0  0  2  0  0  0  0  0  0  0  0  0
    5.2855   -7.9337    0.0000 O   0  0  0  0  0  0  0  0  0  0  0  0
    6.3019   -7.2193    0.0000 C   0  0  0  0  0  0  0  0  0  0  0  0
    8.1433   -7.9337    0.0000 C   0  0  0  0  0  0  0  0  0  0  0  0
    8.8578   -8.3462    0.0000 C   0  0  0  0  0  0  0  0  0  0  0  0
    9.5723   -7.9337    0.0000 C   0  0  0  0  0  0  0  0  0  0  0  0
   10.2868   -8.3462    0.0000 C   0  0  0  0  0  0  0  0  0  0  0  0
    9.5723   -7.1087    0.0000 O   0  0  0  0  0  0  0  0  0  0  0  0
    7.1269   -7.2193    0.0000 C   0  0  0  0  0  0  0  0  0  0  0  0
    5.2855   -9.5838    0.0000 O   0  0  0  0  0  0  0  0  0  0  0  0
    8.1433   -9.5838    0.0000 C   0  0  0  0  0  0  0  0  0  0  0  0
  1  2  1  0  0  0  0
  2  3  1  0  0  0  0
  3  4  1  0  0  0  0
  4  5  1  0  0  0  0
  5  6  1  0  0  0  0
  6  1  1  0  0  0  0
  1  7  1  1  0  0  0
  6  8  1  1  0  0  0
  5  9  1  0  0  0  0
  9 10  2  0  0  0  0
 10 11  1  0  0  0  0
 11 12  1  0  0  0  0
 11 13  2  0  0  0  0
  6 14  1  6  0  0  0
  2 15  1  6  0  0  0
  4 16  1  6  0  0  0
M  END
>  <cdx:fragmentId>
5

$$$$
