99228.cdx
  Mrv1902 05222410192D          

 32 35  0  0  0  0            999 V2000
    5.0099   -8.8963    0.0000 C   0  0  0  0  0  0  0  0  0  0  0  0
    5.0099   -9.7212    0.0000 C   0  0  0  0  0  0  0  0  0  0  0  0
    5.7244  -10.1338    0.0000 C   0  0  0  0  0  0  0  0  0  0  0  0
    6.4389   -9.7212    0.0000 C   0  0  0  0  0  0  0  0  0  0  0  0
    6.4389   -8.8963    0.0000 C   0  0  0  0  0  0  0  0  0  0  0  0
    5.7244   -8.4838    0.0000 C   0  0  0  0  0  0  0  0  0  0  0  0
    7.1533  -10.1338    0.0000 C   0  0  0  0  0  0  0  0  0  0  0  0
    7.8678   -9.7212    0.0000 C   0  0  0  0  0  0  0  0  0  0  0  0
    7.8678   -8.8963    0.0000 C   0  0  0  0  0  0  0  0  0  0  0  0
    7.1533   -8.4838    0.0000 O   0  0  0  0  0  0  0  0  0  0  0  0
    9.2968   -8.8963    0.0000 C   0  0  0  0  0  0  0  0  0  0  0  0
    8.5823   -8.4838    0.0000 C   0  0  0  0  0  0  0  0  0  0  0  0
   10.0112   -8.4838    0.0000 C   0  0  0  0  0  0  0  0  0  0  0  0
   10.0112   -7.6587    0.0000 C   0  0  0  0  0  0  0  0  0  0  0  0
    9.2968   -7.2462    0.0000 C   0  0  0  0  0  0  0  0  0  0  0  0
    8.5823   -7.6587    0.0000 C   0  0  0  0  0  0  0  0  0  0  0  0
    5.7244   -7.6587    0.0000 C   0  0  0  0  0  0  0  0  0  0  0  0
    5.0099   -7.2462    0.0000 C   0  0  0  0  0  0  0  0  0  0  0  0
    4.2955   -7.6587    0.0000 O   0  0  0  0  0  0  0  0  0  0  0  0
    4.2955   -8.4838    0.0000 O   0  0  0  0  0  0  0  0  0  0  0  0
    6.4389   -7.2462    0.0000 C   0  0  0  0  0  0  0  0  0  0  0  0
    6.4389   -6.4213    0.0000 C   0  0  0  0  0  0  0  0  0  0  0  0
    5.7244   -6.0088    0.0000 C   0  0  0  0  0  0  0  0  0  0  0  0
    5.0099   -6.4213    0.0000 C   0  0  0  0  0  0  0  0  0  0  0  0
    7.1533   -6.0088    0.0000 C   0  0  0  0  0  0  0  0  0  0  0  0
    7.1533   -5.1837    0.0000 O   0  0  0  0  0  0  0  0  0  0  0  0
   10.7257   -7.2462    0.0000 O   0  0  0  0  0  0  0  0  0  0  0  0
   11.4402   -7.6587    0.0000 C   0  0  0  0  0  0  0  0  0  0  0  0
    7.1533  -10.9588    0.0000 O   0  0  0  0  0  0  0  0  0  0  0  0
    5.7244  -10.9588    0.0000 O   0  0  0  0  0  0  0  0  0  0  0  0
    3.5810   -7.2462    0.0000 C   0  0  0  0  0  0  0  0  0  0  0  0
    7.8678   -6.4213    0.0000 O   0  0  0  0  0  0  0  0  0  0  0  0
  1  2  2  0  0  0  0
  2  3  1  0  0  0  0
  3  4  2  0  0  0  0
  4  5  1  0  0  0  0
  5  6  2  0  0  0  0
  6  1  1  0  0  0  0
  4  7  1  0  0  0  0
  7  8  1  0  0  0  0
  8  9  2  0  0  0  0
  9 10  1  0  0  0  0
 10  5  1  0  0  0  0
 11 12  2  0  0  0  0
 12  9  1  0  0  0  0
 11 13  1  0  0  0  0
 13 14  2  0  0  0  0
 14 15  1  0  0  0  0
 15 16  2  0  0  0  0
 16 12  1  0  0  0  0
  6 17  1  0  0  0  0
 17 18  2  0  0  0  0
 18 19  1  0  0  0  0
 20  1  1  0  0  0  0
 17 21  1  0  0  0  0
 21 22  2  0  0  0  0
 22 23  1  0  0  0  0
 23 24  2  0  0  0  0
 24 18  1  0  0  0  0
 22 25  1  0  0  0  0
 25 26  1  0  0  0  0
 14 27  1  0  0  0  0
 27 28  1  0  0  0  0
  7 29  2  0  0  0  0
  3 30  1  0  0  0  0
 19 31  1  0  0  0  0
 25 32  2  0  0  0  0
M  END
>  <cdx:fragmentId>
5

$$$$
