99225.cdx
  Mrv1902 05222410272D          

 78 79  0  0  0  0            999 V2000
    4.6530   -5.1074    0.0000 C   0  0  2  0  0  0  0  0  0  0  0  0
    4.9853   -4.8919    0.0000 C   0  0  0  0  0  0  0  0  0  0  0  0
    5.3380   -5.0719    0.0000 C   0  0  0  0  0  0  0  0  0  0  0  0
    5.3585   -5.4674    0.0000 C   0  0  0  0  0  0  0  0  0  0  0  0
    5.0263   -5.6829    0.0000 C   0  0  0  0  0  0  0  0  0  0  0  0
    4.6735   -5.5029    0.0000 C   0  0  0  0  0  0  0  0  0  0  0  0
    4.3003   -4.9275    0.0000 O   0  0  0  0  0  0  0  0  0  0  0  0
    5.2418   -6.0151    0.0000 C   0  0  0  0  0  0  0  0  0  0  0  0
    4.8463   -6.0356    0.0000 C   0  0  0  0  0  0  0  0  0  0  0  0
    5.6702   -4.8564    0.0000 C   0  0  0  0  0  0  0  0  0  0  0  0
    5.7113   -5.6473    0.0000 C   0  0  0  0  0  0  0  0  0  0  0  0
    5.7318   -6.0428    0.0000 C   0  0  0  0  0  0  0  0  0  0  0  0
    6.0845   -6.2228    0.0000 C   0  0  0  0  0  0  0  0  0  0  0  0
    6.1050   -6.6182    0.0000 C   0  0  0  0  0  0  0  0  0  0  0  0
    6.4578   -6.7982    0.0000 C   0  0  0  0  0  0  0  0  0  0  0  0
    6.4783   -7.1937    0.0000 C   0  0  0  0  0  0  0  0  0  0  0  0
    6.8310   -7.3736    0.0000 C   0  0  0  0  0  0  0  0  0  0  0  0
    6.8515   -7.7691    0.0000 C   0  0  0  0  0  0  0  0  0  0  0  0
    7.2043   -7.9491    0.0000 C   0  0  0  0  0  0  0  0  0  0  0  0
    7.2248   -8.3445    0.0000 C   0  0  0  0  0  0  0  0  0  0  0  0
    7.5775   -8.5245    0.0000 C   0  0  0  0  0  0  0  0  0  0  0  0
    7.5981   -8.9200    0.0000 C   0  0  0  0  0  0  0  0  0  0  0  0
    7.9508   -9.0999    0.0000 C   0  0  0  0  0  0  0  0  0  0  0  0
    7.9713   -9.4954    0.0000 C   0  0  0  0  0  0  0  0  0  0  0  0
    8.3241   -9.6754    0.0000 C   0  0  0  0  0  0  0  0  0  0  0  0
    8.3446  -10.0709    0.0000 C   0  0  0  0  0  0  0  0  0  0  0  0
    8.6973  -10.2508    0.0000 C   0  0  0  0  0  0  0  0  0  0  0  0
    8.7178  -10.6463    0.0000 C   0  0  0  0  0  0  0  0  0  0  0  0
    8.0123  -10.2864    0.0000 C   0  0  0  0  0  0  0  0  0  0  0  0
    7.2658   -9.1355    0.0000 C   0  0  0  0  0  0  0  0  0  0  0  0
    7.1633   -7.1581    0.0000 C   0  0  0  0  0  0  0  0  0  0  0  0
    6.4167   -6.0073    0.0000 C   0  0  0  0  0  0  0  0  0  0  0  0
    9.0706  -10.8263    0.0000 C   0  0  1  0  0  0  0  0  0  0  0  0
    9.0911  -11.2217    0.0000 C   0  0  0  0  0  0  0  0  0  0  0  0
    9.4438  -11.4017    0.0000 C   0  0  0  0  0  0  0  0  0  0  0  0
    9.7761  -11.1862    0.0000 C   0  0  1  0  0  0  0  0  0  0  0  0
    9.7555  -10.7907    0.0000 C   0  0  0  0  0  0  0  0  0  0  0  0
    9.4028  -10.6108    0.0000 C   0  0  0  0  0  0  0  0  0  0  0  0
    9.1873  -10.2785    0.0000 C   0  0  0  0  0  0  0  0  0  0  0  0
    9.5828  -10.2580    0.0000 C   0  0  0  0  0  0  0  0  0  0  0  0
    8.7589  -11.4372    0.0000 C   0  0  0  0  0  0  0  0  0  0  0  0
   10.1288  -11.3662    0.0000 O   0  0  0  0  0  0  0  0  0  0  0  0
    4.2862   -4.5298    0.0000 C   0  0  0  0  0  0  0  0  0  0  0  0
    3.9338   -4.3491    0.0000 C   0  0  0  0  0  0  0  0  0  0  0  0
    3.9141   -3.9536    0.0000 C   0  0  0  0  0  0  0  0  0  0  0  0
    3.5617   -3.7729    0.0000 C   0  0  0  0  0  0  0  0  0  0  0  0
    3.5420   -3.3774    0.0000 C   0  0  0  0  0  0  0  0  0  0  0  0
    3.1897   -3.1967    0.0000 C   0  0  0  0  0  0  0  0  0  0  0  0
    3.1700   -2.8012    0.0000 C   0  0  0  0  0  0  0  0  0  0  0  0
    2.8176   -2.6205    0.0000 C   0  0  0  0  0  0  0  0  0  0  0  0
    2.7979   -2.2250    0.0000 C   0  0  0  0  0  0  0  0  0  0  0  0
    2.4455   -2.0443    0.0000 C   0  0  0  0  0  0  0  0  0  0  0  0
    2.4258   -1.6488    0.0000 C   0  0  0  0  0  0  0  0  0  0  0  0
    2.0734   -1.4681    0.0000 C   0  0  0  0  0  0  0  0  0  0  0  0
    2.0537   -1.0726    0.0000 C   0  0  0  0  0  0  0  0  0  0  0  0
    1.7014   -0.8919    0.0000 C   0  0  0  0  0  0  0  0  0  0  0  0
    1.6817   -0.4964    0.0000 C   0  0  0  0  0  0  0  0  0  0  0  0
    1.3293   -0.3157    0.0000 C   0  0  0  0  0  0  0  0  0  0  0  0
    4.6189   -4.3150    0.0000 O   0  0  0  0  0  0  0  0  0  0  0  0
   10.1102  -11.7493    0.0000 C   0  0  0  0  0  0  0  0  0  0  0  0
   10.4483  -11.9555    0.0000 C   0  0  0  0  0  0  0  0  0  0  0  0
   10.4387  -12.3513    0.0000 C   0  0  0  0  0  0  0  0  0  0  0  0
   10.7768  -12.5575    0.0000 C   0  0  0  0  0  0  0  0  0  0  0  0
   10.7673  -12.9534    0.0000 C   0  0  0  0  0  0  0  0  0  0  0  0
   11.1054  -13.1596    0.0000 C   0  0  0  0  0  0  0  0  0  0  0  0
   11.0958  -13.5555    0.0000 C   0  0  0  0  0  0  0  0  0  0  0  0
   11.4339  -13.7617    0.0000 C   0  0  0  0  0  0  0  0  0  0  0  0
   11.4244  -14.1576    0.0000 C   0  0  0  0  0  0  0  0  0  0  0  0
   11.6141  -14.5052    0.0000 C   0  0  0  0  0  0  0  0  0  0  0  0
   11.9521  -14.7114    0.0000 C   0  0  0  0  0  0  0  0  0  0  0  0
   11.9426  -15.1073    0.0000 C   0  0  0  0  0  0  0  0  0  0  0  0
   12.2807  -15.3135    0.0000 C   0  0  0  0  0  0  0  0  0  0  0  0
   12.2712  -15.7094    0.0000 C   0  0  0  0  0  0  0  0  0  0  0  0
   12.6092  -15.9156    0.0000 C   0  0  0  0  0  0  0  0  0  0  0  0
   12.5997  -16.3115    0.0000 C   0  0  0  0  0  0  0  0  0  0  0  0
   12.9378  -16.5177    0.0000 C   0  0  0  0  0  0  0  0  0  0  0  0
   12.9282  -16.9135    0.0000 C   0  0  0  0  0  0  0  0  0  0  0  0
    9.7626  -11.9389    0.0000 O   0  0  0  0  0  0  0  0  0  0  0  0
  1  2  1  0  0  0  0
  2  3  1  0  0  0  0
  3  4  2  0  0  0  0
  4  5  1  0  0  0  0
  5  6  1  0  0  0  0
  1  6  1  0  0  0  0
  1  7  1  6  0  0  0
  5  8  1  0  0  0  0
  5  9  1  0  0  0  0
  3 10  1  0  0  0  0
 11 12  2  0  0  0  0
 12 13  1  0  0  0  0
 13 14  2  0  0  0  0
 14 15  1  0  0  0  0
 15 16  2  0  0  0  0
 16 17  1  0  0  0  0
 17 18  2  0  0  0  0
 18 19  1  0  0  0  0
 19 20  2  0  0  0  0
 20 21  1  0  0  0  0
 21 22  2  0  0  0  0
 22 23  1  0  0  0  0
 23 24  2  0  0  0  0
 24 25  1  0  0  0  0
 25 26  2  0  0  0  0
 26 27  1  0  0  0  0
 27 28  2  0  0  0  0
 26 29  1  0  0  0  0
 22 30  1  0  0  0  0
 17 31  1  0  0  0  0
 13 32  1  0  0  0  0
 33 34  1  0  0  0  0
 34 35  2  0  0  0  0
 35 36  1  0  0  0  0
 36 37  1  0  0  0  0
 37 38  1  0  0  0  0
 33 38  1  0  0  0  0
 38 39  1  0  0  0  0
 38 40  1  0  0  0  0
 34 41  1  0  0  0  0
 36 42  1  1  0  0  0
 33 28  1  6  0  0  0
  4 11  1  0  0  0  0
 43 44  1  0  0  0  0
 44 45  1  0  0  0  0
 45 46  1  0  0  0  0
 46 47  1  0  0  0  0
 47 48  1  0  0  0  0
 48 49  1  0  0  0  0
 49 50  1  0  0  0  0
 50 51  1  0  0  0  0
 51 52  1  0  0  0  0
 52 53  1  0  0  0  0
 53 54  1  0  0  0  0
 54 55  1  0  0  0  0
 55 56  1  0  0  0  0
 56 57  1  0  0  0  0
 57 58  1  0  0  0  0
 43 59  2  0  0  0  0
 43  7  1  0  0  0  0
 60 61  1  0  0  0  0
 61 62  1  0  0  0  0
 62 63  1  0  0  0  0
 63 64  1  0  0  0  0
 64 65  1  0  0  0  0
 65 66  1  0  0  0  0
 66 67  1  0  0  0  0
 67 68  1  0  0  0  0
 68 69  2  0  0  0  0
 69 70  1  0  0  0  0
 70 71  1  0  0  0  0
 71 72  1  0  0  0  0
 72 73  1  0  0  0  0
 73 74  1  0  0  0  0
 74 75  1  0  0  0  0
 75 76  1  0  0  0  0
 76 77  1  0  0  0  0
 60 78  2  0  0  0  0
 60 42  1  0  0  0  0
M  END
>  <cdx:fragmentId>
25

$$$$
