99238.cdx
  Mrv1902 05222410192D          

 34 39  0  0  0  0            999 V2000
    4.4324   -9.3913    0.0000 C   0  0  0  0  0  0  0  0  0  0  0  0
    4.4324  -10.2163    0.0000 C   0  0  0  0  0  0  0  0  0  0  0  0
    5.1469  -10.6288    0.0000 C   0  0  1  0  0  0  0  0  0  0  0  0
    5.8614  -10.2163    0.0000 C   0  0  0  0  0  0  0  0  0  0  0  0
    5.8614   -9.3913    0.0000 C   0  0  2  0  0  0  0  0  0  0  0  0
    5.1469   -8.9788    0.0000 C   0  0  0  0  0  0  0  0  0  0  0  0
    6.5758  -10.6288    0.0000 C   0  0  0  0  0  0  0  0  0  0  0  0
    7.2903  -10.2163    0.0000 C   0  0  0  0  0  0  0  0  0  0  0  0
    7.2903   -9.3913    0.0000 C   0  0  2  0  0  0  0  0  0  0  0  0
    6.5758   -8.9788    0.0000 C   0  0  0  0  0  0  0  0  0  0  0  0
    8.0048   -8.9788    0.0000 C   0  0  1  0  0  0  0  0  0  0  0  0
    8.0048   -8.1538    0.0000 C   0  0  0  0  0  0  0  0  0  0  0  0
    7.2903   -7.7413    0.0000 C   0  0  2  0  0  0  0  0  0  0  0  0
    6.5758   -8.1538    0.0000 C   0  0  0  0  0  0  0  0  0  0  0  0
    8.7193   -9.3913    0.0000 C   0  0  0  0  0  0  0  0  0  0  0  0
    9.4337   -8.9788    0.0000 C   0  0  0  0  0  0  0  0  0  0  0  0
    9.4337   -8.1538    0.0000 C   0  0  0  0  0  0  0  0  0  0  0  0
    8.7193   -7.7413    0.0000 C   0  0  0  0  0  0  0  0  0  0  0  0
   10.1482   -7.7413    0.0000 C   0  0  0  0  0  0  0  0  0  0  0  0
   10.1482   -6.9162    0.0000 C   0  0  0  0  0  0  0  0  0  0  0  0
    9.4337   -6.5038    0.0000 C   0  0  1  0  0  0  0  0  0  0  0  0
    8.7193   -6.9162    0.0000 C   0  0  0  0  0  0  0  0  0  0  0  0
    5.5594  -11.3432    0.0000 C   0  0  0  0  0  0  0  0  0  0  0  0
    5.8614   -8.5663    0.0000 C   0  0  0  0  0  0  0  0  0  0  0  0
    7.2903   -8.5663    0.0000 C   0  0  0  0  0  0  0  0  0  0  0  0
    9.8462   -5.7893    0.0000 C   0  0  0  0  0  0  0  0  0  0  0  0
    9.0212   -5.7893    0.0000 C   0  0  0  0  0  0  0  0  0  0  0  0
    7.2903   -6.9162    0.0000 O   0  0  0  0  0  0  0  0  0  0  0  0
    8.0048   -9.8038    0.0000 C   0  0  0  0  0  0  0  0  0  0  0  0
    4.7344  -11.3432    0.0000 C   0  0  0  0  0  0  0  0  0  0  0  0
    3.7180  -10.6288    0.0000 O   0  0  0  0  0  0  0  0  0  0  0  0
    8.4173   -8.8682    0.0000 O   0  0  0  0  0  0  0  0  0  0  0  0
    9.8462   -8.8682    0.0000 C   0  0  0  0  0  0  0  0  0  0  0  0
   10.5607   -9.2807    0.0000 O   0  0  0  0  0  0  0  0  0  0  0  0
  1  2  1  0  0  0  0
  2  3  1  0  0  0  0
  3  4  1  0  0  0  0
  4  5  1  0  0  0  0
  5  6  1  0  0  0  0
  6  1  1  0  0  0  0
  4  7  1  0  0  0  0
  7  8  1  0  0  0  0
  8  9  1  0  0  0  0
  9 10  1  0  0  0  0
 10  5  1  0  0  0  0
  9 11  1  0  0  0  0
 11 12  1  0  0  0  0
 12 13  1  0  0  0  0
 13 14  1  0  0  0  0
 14 10  1  0  0  0  0
 11 15  1  0  0  0  0
 15 16  1  0  0  0  0
 16 17  1  0  0  0  0
 17 18  1  0  0  0  0
 18 12  1  0  0  0  0
 17 19  1  0  0  0  0
 19 20  1  0  0  0  0
 20 21  1  0  0  0  0
 21 22  1  0  0  0  0
 22 18  1  0  0  0  0
  3 23  1  1  0  0  0
  5 24  1  1  0  0  0
  9 25  1  1  0  0  0
 21 26  1  1  0  0  0
 21 27  1  6  0  0  0
 13 28  1  6  0  0  0
 11 29  1  6  0  0  0
  3 30  1  6  0  0  0
  2 31  2  0  0  0  0
 12 32  1  0  0  0  0
 17 33  1  0  0  0  0
 32 33  1  0  0  0  0
 33 34  2  0  0  0  0
M  END
>  <cdx:fragmentId>
5

$$$$
