99236.cdx
  Mrv1902 05222410282D          

 15 14  0  0  0  0            999 V2000
    5.7667   -8.3135    0.0000 C   0  0  0  0  0  0  0  0  0  0  0  0
    5.0522   -8.7260    0.0000 C   0  0  0  0  0  0  0  0  0  0  0  0
    5.0522   -9.5510    0.0000 C   0  0  0  0  0  0  0  0  0  0  0  0
    5.7667   -7.4885    0.0000 O   0  0  0  0  0  0  0  0  0  0  0  0
    6.4812   -8.7260    0.0000 O   0  0  0  0  0  0  0  0  0  0  0  0
    4.3378   -8.3135    0.0000 C   0  0  0  0  0  0  0  0  0  0  0  0
    7.1956   -8.3135    0.0000 C   0  0  0  0  0  0  0  0  0  0  0  0
    7.9101   -8.7260    0.0000 C   0  0  0  0  0  0  0  0  0  0  0  0
    8.6246   -8.3135    0.0000 C   0  0  0  0  0  0  0  0  0  0  0  0
    9.3391   -8.7260    0.0000 C   0  0  0  0  0  0  0  0  0  0  0  0
    9.7516   -8.0115    0.0000 C   0  0  0  0  0  0  0  0  0  0  0  0
   10.0535   -9.1385    0.0000 C   0  0  0  0  0  0  0  0  0  0  0  0
    8.9266   -9.4404    0.0000 C   0  0  0  0  0  0  0  0  0  0  0  0
    7.9101   -9.5510    0.0000 C   0  0  0  0  0  0  0  0  0  0  0  0
    8.6246   -7.4885    0.0000 O   0  0  0  0  0  0  0  0  0  0  0  0
  1  2  1  0  0  0  0
  2  3  1  0  0  0  0
  1  4  2  0  0  0  0
  1  5  1  0  0  0  0
  2  6  1  0  0  0  0
  7  8  1  0  0  0  0
  8  9  1  0  0  0  0
  9 10  1  0  0  0  0
 10 11  1  0  0  0  0
 10 12  1  0  0  0  0
 10 13  1  0  0  0  0
  8 14  1  0  0  0  0
  9 15  1  0  0  0  0
  5  7  1  0  0  0  0
M  END
>  <cdx:fragmentId>
17

$$$$
