99235.cdx
  Mrv1902 05222410272D          

 15 14  0  0  0  0            999 V2000
    5.9746   -8.6625    0.0000 C   0  0  0  0  0  0  0  0  0  0  0  0
    5.2601   -9.0750    0.0000 C   0  0  0  0  0  0  0  0  0  0  0  0
    5.2601   -9.9000    0.0000 C   0  0  0  0  0  0  0  0  0  0  0  0
    5.9746   -7.8375    0.0000 O   0  0  0  0  0  0  0  0  0  0  0  0
    6.6891   -9.0750    0.0000 O   0  0  0  0  0  0  0  0  0  0  0  0
    4.5457   -8.6625    0.0000 C   0  0  0  0  0  0  0  0  0  0  0  0
    7.4035   -7.8375    0.0000 C   0  0  0  0  0  0  0  0  0  0  0  0
    6.6891   -7.4250    0.0000 C   0  0  0  0  0  0  0  0  0  0  0  0
    8.1180   -7.4250    0.0000 C   0  0  0  0  0  0  0  0  0  0  0  0
    8.8325   -9.4875    0.0000 C   0  0  0  0  0  0  0  0  0  0  0  0
    7.7055   -9.7895    0.0000 C   0  0  0  0  0  0  0  0  0  0  0  0
    6.6891   -6.6000    0.0000 O   0  0  0  0  0  0  0  0  0  0  0  0
    8.5305   -8.3605    0.0000 C   0  0  0  0  0  0  0  0  0  0  0  0
    8.1180   -9.0750    0.0000 C   0  0  0  0  0  0  0  0  0  0  0  0
    7.4035   -8.6625    0.0000 C   0  0  0  0  0  0  0  0  0  0  0  0
 14 10  1  0  0  0  0
 14 11  1  0  0  0  0
 15  7  1  0  0  0  0
 14 13  1  0  0  0  0
 15 14  1  0  0  0  0
  1  2  1  0  0  0  0
  2  3  1  0  0  0  0
  1  4  2  0  0  0  0
  1  5  1  0  0  0  0
  2  6  1  0  0  0  0
  7  8  1  0  0  0  0
  7  9  1  0  0  0  0
  8 12  1  0  0  0  0
  5 15  1  0  0  0  0
M  END
>  <cdx:fragmentId>
23

$$$$
