99234.cdx
  Mrv1902 05222410272D          

 34 36  0  0  0  0            999 V2000
    8.5413   -9.5510    0.0000 O   0  0  0  0  0  0  0  0  0  0  0  0
    7.8268   -9.9635    0.0000 C   0  0  1  0  0  0  0  0  0  0  0  0
    7.8268  -10.7885    0.0000 C   0  0  2  0  0  0  0  0  0  0  0  0
    8.5413  -11.2010    0.0000 O   0  0  0  0  0  0  0  0  0  0  0  0
    7.1124  -11.2010    0.0000 C   0  0  1  0  0  0  0  0  0  0  0  0
    7.1124  -12.0260    0.0000 O   0  0  0  0  0  0  0  0  0  0  0  0
    6.3979  -10.7885    0.0000 C   0  0  2  0  0  0  0  0  0  0  0  0
    5.6834  -11.2010    0.0000 O   0  0  0  0  0  0  0  0  0  0  0  0
    6.3979   -9.9635    0.0000 C   0  0  2  0  0  0  0  0  0  0  0  0
    7.1124   -9.5510    0.0000 O   0  0  0  0  0  0  0  0  0  0  0  0
    5.6834   -9.5510    0.0000 C   0  0  0  0  0  0  0  0  0  0  0  0
    4.9689   -9.9635    0.0000 O   0  0  0  0  0  0  0  0  0  0  0  0
    6.3979  -12.4385    0.0000 C   0  0  1  0  0  0  0  0  0  0  0  0
    6.3979  -13.2635    0.0000 C   0  0  2  0  0  0  0  0  0  0  0  0
    7.1124  -13.6760    0.0000 O   0  0  0  0  0  0  0  0  0  0  0  0
    5.6834  -13.6760    0.0000 C   0  0  1  0  0  0  0  0  0  0  0  0
    5.6834  -14.5010    0.0000 O   0  0  0  0  0  0  0  0  0  0  0  0
    4.9689  -13.2635    0.0000 C   0  0  2  0  0  0  0  0  0  0  0  0
    4.2545  -13.6760    0.0000 O   0  0  0  0  0  0  0  0  0  0  0  0
    4.9689  -12.4385    0.0000 C   0  0  2  0  0  0  0  0  0  0  0  0
    5.6834  -12.0260    0.0000 O   0  0  0  0  0  0  0  0  0  0  0  0
    4.2545  -12.0260    0.0000 C   0  0  0  0  0  0  0  0  0  0  0  0
    3.5400  -12.4385    0.0000 O   0  0  0  0  0  0  0  0  0  0  0  0
    8.5413   -8.7260    0.0000 C   0  0  0  0  0  0  0  0  0  0  0  0
    9.2558   -8.3135    0.0000 C   0  0  0  0  0  0  0  0  0  0  0  0
    9.2558   -7.4885    0.0000 C   0  0  0  0  0  0  0  0  0  0  0  0
    9.9702   -7.0760    0.0000 C   0  0  0  0  0  0  0  0  0  0  0  0
    9.9702   -6.2510    0.0000 C   0  0  0  0  0  0  0  0  0  0  0  0
    9.2558   -5.8385    0.0000 C   0  0  0  0  0  0  0  0  0  0  0  0
    8.5413   -6.2510    0.0000 C   0  0  0  0  0  0  0  0  0  0  0  0
    8.5413   -7.0760    0.0000 C   0  0  0  0  0  0  0  0  0  0  0  0
    9.2558   -5.0135    0.0000 O   0  0  0  0  0  0  0  0  0  0  0  0
    7.8268   -5.8385    0.0000 O   0  0  0  0  0  0  0  0  0  0  0  0
    8.5413   -4.6010    0.0000 C   0  0  0  0  0  0  0  0  0  0  0  0
  2  1  1  1  0  0  0
  2  3  1  0  0  0  0
  3  4  1  6  0  0  0
  3  5  1  0  0  0  0
  5  6  1  1  0  0  0
  5  7  1  0  0  0  0
  7  8  1  6  0  0  0
  7  9  1  0  0  0  0
  9 10  1  0  0  0  0
  9 11  1  1  0  0  0
 11 12  1  0  0  0  0
  2 10  1  0  0  0  0
 13 14  1  0  0  0  0
 14 15  1  6  0  0  0
 14 16  1  0  0  0  0
 16 17  1  1  0  0  0
 16 18  1  0  0  0  0
 18 19  1  6  0  0  0
 18 20  1  0  0  0  0
 20 21  1  0  0  0  0
 20 22  1  1  0  0  0
 22 23  1  0  0  0  0
 13 21  1  0  0  0  0
 13  6  1  1  0  0  0
  1 24  1  0  0  0  0
 24 25  1  0  0  0  0
 25 26  1  0  0  0  0
 26 27  2  0  0  0  0
 27 28  1  0  0  0  0
 28 29  2  0  0  0  0
 29 30  1  0  0  0  0
 30 31  2  0  0  0  0
 31 26  1  0  0  0  0
 29 32  1  0  0  0  0
 30 33  1  0  0  0  0
 32 34  1  0  0  0  0
M  END
>  <cdx:fragmentId>
3

$$$$
