99248.cdx
  Mrv1902 05222410222D          

 39 42  0  0  0  0            999 V2000
   12.0865   -8.7725    0.0000 O   0  0  0  0  0  0  0  0  0  0  0  0
   11.5343   -9.3854    0.0000 C   0  0  0  0  0  0  0  0  0  0  0  0
   10.7807   -9.0497    0.0000 C   0  0  1  0  0  0  0  0  0  0  0  0
   10.8672   -8.2292    0.0000 C   0  0  2  0  0  0  0  0  0  0  0  0
   11.6742   -8.0579    0.0000 C   0  0  0  0  0  0  0  0  0  0  0  0
   11.7057  -10.1924    0.0000 O   0  0  0  0  0  0  0  0  0  0  0  0
   10.0662   -9.4620    0.0000 C   0  0  0  0  0  0  0  0  0  0  0  0
    9.3518   -9.0494    0.0000 C   0  0  0  0  0  0  0  0  0  0  0  0
    9.3520   -8.2244    0.0000 C   0  0  0  0  0  0  0  0  0  0  0  0
    8.6376   -7.8117    0.0000 C   0  0  0  0  0  0  0  0  0  0  0  0
    7.9230   -8.2240    0.0000 C   0  0  0  0  0  0  0  0  0  0  0  0
    7.9229   -9.0490    0.0000 C   0  0  0  0  0  0  0  0  0  0  0  0
    8.6372   -9.4617    0.0000 C   0  0  0  0  0  0  0  0  0  0  0  0
    7.2087   -7.8114    0.0000 O   0  0  0  0  0  0  0  0  0  0  0  0
    8.6378   -6.9867    0.0000 O   0  0  0  0  0  0  0  0  0  0  0  0
    7.9233   -6.5742    0.0000 C   0  0  0  0  0  0  0  0  0  0  0  0
   10.2542   -7.6771    0.0000 C   0  0  0  0  0  0  0  0  0  0  0  0
   10.4259   -6.8701    0.0000 C   0  0  0  0  0  0  0  0  0  0  0  0
    9.8129   -6.3180    0.0000 C   0  0  0  0  0  0  0  0  0  0  0  0
    9.9846   -5.5110    0.0000 C   0  0  0  0  0  0  0  0  0  0  0  0
   10.7693   -5.2563    0.0000 C   0  0  0  0  0  0  0  0  0  0  0  0
   11.3823   -5.8084    0.0000 C   0  0  0  0  0  0  0  0  0  0  0  0
   11.2106   -6.6154    0.0000 C   0  0  0  0  0  0  0  0  0  0  0  0
    9.3717   -4.9589    0.0000 O   0  0  0  0  0  0  0  0  0  0  0  0
    8.5870   -5.2136    0.0000 C   0  0  0  0  0  0  0  0  0  0  0  0
   10.9410   -4.4493    0.0000 O   0  0  0  0  0  0  0  0  0  0  0  0
   12.1670   -5.5537    0.0000 O   0  0  0  0  0  0  0  0  0  0  0  0
    6.4941   -8.2237    0.0000 C   0  0  0  0  0  0  0  0  0  0  0  0
    5.7797   -7.8111    0.0000 C   0  0  0  0  0  0  0  0  0  0  0  0
    6.4939   -9.0487    0.0000 O   0  0  0  0  0  0  0  0  0  0  0  0
    5.0652   -8.2234    0.0000 C   0  0  0  0  0  0  0  0  0  0  0  0
    4.3508   -7.8107    0.0000 C   0  0  0  0  0  0  0  0  0  0  0  0
    4.3511   -6.9857    0.0000 C   0  0  0  0  0  0  0  0  0  0  0  0
    3.6367   -6.5730    0.0000 C   0  0  0  0  0  0  0  0  0  0  0  0
    2.9221   -6.9857    0.0000 C   0  0  0  0  0  0  0  0  0  0  0  0
    2.9221   -7.8107    0.0000 C   0  0  0  0  0  0  0  0  0  0  0  0
    3.6367   -8.2235    0.0000 C   0  0  0  0  0  0  0  0  0  0  0  0
    2.2076   -6.5733    0.0000 O   0  0  0  0  0  0  0  0  0  0  0  0
    2.2076   -8.2232    0.0000 O   0  0  0  0  0  0  0  0  0  0  0  0
  1  2  1  0  0  0  0
  2  3  1  0  0  0  0
  3  4  1  0  0  0  0
  4  5  1  0  0  0  0
  1  5  1  0  0  0  0
  2  6  2  0  0  0  0
  8  9  1  0  0  0  0
  9 10  2  0  0  0  0
 10 11  1  0  0  0  0
 11 12  2  0  0  0  0
 12 13  1  0  0  0  0
  8 13  2  0  0  0  0
 11 14  1  0  0  0  0
 15 16  1  0  0  0  0
 10 15  1  0  0  0  0
  7  8  1  0  0  0  0
  3  7  1  6  0  0  0
 18 19  1  0  0  0  0
 19 20  2  0  0  0  0
 20 21  1  0  0  0  0
 21 22  2  0  0  0  0
 22 23  1  0  0  0  0
 18 23  2  0  0  0  0
 24 25  1  0  0  0  0
 20 24  1  0  0  0  0
 21 26  1  0  0  0  0
 17 18  1  0  0  0  0
  4 17  1  1  0  0  0
 22 27  1  0  0  0  0
 14 28  1  0  0  0  0
 28 29  1  0  0  0  0
 28 30  2  0  0  0  0
 29 31  2  0  0  0  0
 31 32  1  0  0  0  0
 32 33  2  0  0  0  0
 33 34  1  0  0  0  0
 34 35  2  0  0  0  0
 35 36  1  0  0  0  0
 36 37  2  0  0  0  0
 37 32  1  0  0  0  0
 35 38  1  0  0  0  0
 36 39  1  0  0  0  0
M  END
>  <cdx:groupId>
21491

>  <cdx:fragmentId>
21408

$$$$
