99243.cdx
  Mrv1902 05222410252D          

 25 26  0  0  0  0            999 V2000
    8.8122   -6.7458    0.0000 O   0  0  0  0  0  0  0  0  0  0  0  0
   10.2428   -7.5680    0.0000 C   0  0  0  0  0  0  0  0  0  0  0  0
    8.8138   -7.5708    0.0000 C   0  0  0  0  0  0  0  0  0  0  0  0
    9.5291   -7.9819    0.0000 C   0  0  0  0  0  0  0  0  0  0  0  0
    9.9416   -7.2674    0.0000 C   0  0  0  0  0  0  0  0  0  0  0  0
    9.1166   -8.6964    0.0000 C   0  0  0  0  0  0  0  0  0  0  0  0
    4.5254   -6.7542    0.0000 C   0  0  0  0  0  0  0  0  0  0  0  0
    4.5270   -7.5792    0.0000 C   0  0  0  0  0  0  0  0  0  0  0  0
    5.2423   -7.9903    0.0000 C   0  0  0  0  0  0  0  0  0  0  0  0
    5.9560   -7.5764    0.0000 C   0  0  0  0  0  0  0  0  0  0  0  0
    6.6712   -7.9875    0.0000 C   0  0  0  0  0  0  0  0  0  0  0  0
    7.3849   -7.5736    0.0000 C   0  0  0  0  0  0  0  0  0  0  0  0
    7.3833   -6.7486    0.0000 C   0  0  0  0  0  0  0  0  0  0  0  0
    6.6680   -6.3375    0.0000 C   0  0  0  0  0  0  0  0  0  0  0  0
    5.9543   -6.7514    0.0000 C   0  0  0  0  0  0  0  0  0  0  0  0
    5.2391   -6.3403    0.0000 O   0  0  0  0  0  0  0  0  0  0  0  0
    3.8101   -6.3431    0.0000 O   0  0  0  0  0  0  0  0  0  0  0  0
    8.0977   -6.3361    0.0000 O   0  0  0  0  0  0  0  0  0  0  0  0
   10.2444   -8.3930    0.0000 O   0  0  0  0  0  0  0  0  0  0  0  0
    9.5242   -5.5069    0.0000 O   0  0  0  0  0  0  0  0  0  0  0  0
   10.9532   -5.5041    0.0000 C   0  0  0  0  0  0  0  0  0  0  0  0
   10.9548   -6.3291    0.0000 C   0  0  0  0  0  0  0  0  0  0  0  0
   10.2412   -6.7430    0.0000 C   0  0  0  0  0  0  0  0  0  0  0  0
    8.1002   -7.9847    0.0000 C   0  0  0  0  0  0  0  0  0  0  0  0
    9.5259   -6.3319    0.0000 C   0  0  0  0  0  0  0  0  0  0  0  0
 23  2  1  0  0  0  0
 25 20  2  0  0  0  0
 22 21  1  0  0  0  0
 23 22  2  0  0  0  0
 25 23  1  0  0  0  0
 24  3  1  0  0  0  0
 25  1  1  0  0  0  0
  3  4  1  0  0  0  0
  4  5  1  0  0  0  0
  4  6  1  0  0  0  0
  7  8  1  0  0  0  0
  8  9  1  0  0  0  0
  9 10  1  0  0  0  0
 10 11  1  0  0  0  0
 11 12  2  0  0  0  0
 12 13  1  0  0  0  0
 13 14  2  0  0  0  0
 14 15  1  0  0  0  0
 10 15  2  0  0  0  0
 15 16  1  0  0  0  0
  7 16  1  0  0  0  0
  7 17  2  0  0  0  0
 13 18  1  0  0  0  0
 24 12  1  0  0  0  0
  4 19  1  0  0  0  0
  1  3  1  0  0  0  0
M  END
>  <cdx:fragmentId>
29

$$$$
