99249.cdx
  Mrv1902 05222410232D          

 38 41  0  0  0  0            999 V2000
   11.6471   -6.9798    0.0000 O   0  0  0  0  0  0  0  0  0  0  0  0
   11.0951   -7.5929    0.0000 C   0  0  0  0  0  0  0  0  0  0  0  0
   10.3414   -7.2573    0.0000 C   0  0  1  0  0  0  0  0  0  0  0  0
   10.4277   -6.4369    0.0000 C   0  0  2  0  0  0  0  0  0  0  0  0
   11.2346   -6.2653    0.0000 C   0  0  0  0  0  0  0  0  0  0  0  0
   11.2666   -8.3999    0.0000 O   0  0  0  0  0  0  0  0  0  0  0  0
    9.6270   -7.6698    0.0000 C   0  0  0  0  0  0  0  0  0  0  0  0
    8.9125   -7.2573    0.0000 C   0  0  0  0  0  0  0  0  0  0  0  0
    8.9125   -6.4323    0.0000 C   0  0  0  0  0  0  0  0  0  0  0  0
    8.1980   -6.0198    0.0000 C   0  0  0  0  0  0  0  0  0  0  0  0
    7.4836   -6.4323    0.0000 C   0  0  0  0  0  0  0  0  0  0  0  0
    7.4836   -7.2573    0.0000 C   0  0  0  0  0  0  0  0  0  0  0  0
    8.1980   -7.6698    0.0000 C   0  0  0  0  0  0  0  0  0  0  0  0
    6.7691   -6.0198    0.0000 O   0  0  0  0  0  0  0  0  0  0  0  0
    8.1980   -5.1948    0.0000 O   0  0  0  0  0  0  0  0  0  0  0  0
    7.4836   -4.7823    0.0000 C   0  0  0  0  0  0  0  0  0  0  0  0
    9.8146   -5.8848    0.0000 C   0  0  0  0  0  0  0  0  0  0  0  0
    9.9861   -5.0779    0.0000 C   0  0  0  0  0  0  0  0  0  0  0  0
    9.3730   -4.5258    0.0000 C   0  0  0  0  0  0  0  0  0  0  0  0
    9.5445   -3.7188    0.0000 C   0  0  0  0  0  0  0  0  0  0  0  0
   10.3292   -3.4639    0.0000 C   0  0  0  0  0  0  0  0  0  0  0  0
   10.9423   -4.0159    0.0000 C   0  0  0  0  0  0  0  0  0  0  0  0
   10.7707   -4.8229    0.0000 C   0  0  0  0  0  0  0  0  0  0  0  0
   10.5007   -2.6569    0.0000 O   0  0  0  0  0  0  0  0  0  0  0  0
    8.9314   -3.1668    0.0000 O   0  0  0  0  0  0  0  0  0  0  0  0
   11.7269   -3.7610    0.0000 O   0  0  0  0  0  0  0  0  0  0  0  0
    6.0546   -6.4323    0.0000 C   0  0  0  0  0  0  0  0  0  0  0  0
    5.3401   -6.0198    0.0000 C   0  0  0  0  0  0  0  0  0  0  0  0
    6.0546   -7.2573    0.0000 O   0  0  0  0  0  0  0  0  0  0  0  0
    4.6257   -6.4323    0.0000 C   0  0  0  0  0  0  0  0  0  0  0  0
    3.9112   -6.0198    0.0000 C   0  0  0  0  0  0  0  0  0  0  0  0
    3.9112   -5.1948    0.0000 C   0  0  0  0  0  0  0  0  0  0  0  0
    3.1967   -4.7823    0.0000 C   0  0  0  0  0  0  0  0  0  0  0  0
    2.4823   -5.1948    0.0000 C   0  0  0  0  0  0  0  0  0  0  0  0
    2.4823   -6.0198    0.0000 C   0  0  0  0  0  0  0  0  0  0  0  0
    3.1967   -6.4323    0.0000 C   0  0  0  0  0  0  0  0  0  0  0  0
    1.7678   -4.7823    0.0000 O   0  0  0  0  0  0  0  0  0  0  0  0
    1.7678   -6.4323    0.0000 O   0  0  0  0  0  0  0  0  0  0  0  0
  1  2  1  0  0  0  0
  2  3  1  0  0  0  0
  3  4  1  0  0  0  0
  4  5  1  0  0  0  0
  1  5  1  0  0  0  0
  2  6  2  0  0  0  0
  8  9  1  0  0  0  0
  9 10  2  0  0  0  0
 10 11  1  0  0  0  0
 11 12  2  0  0  0  0
 12 13  1  0  0  0  0
  8 13  2  0  0  0  0
 11 14  1  0  0  0  0
 15 16  1  0  0  0  0
 10 15  1  0  0  0  0
  7  8  1  0  0  0  0
  3  7  1  6  0  0  0
 18 19  1  0  0  0  0
 19 20  2  0  0  0  0
 20 21  1  0  0  0  0
 21 22  2  0  0  0  0
 22 23  1  0  0  0  0
 18 23  2  0  0  0  0
 21 24  1  0  0  0  0
 20 25  1  0  0  0  0
 17 18  1  0  0  0  0
  4 17  1  1  0  0  0
 22 26  1  0  0  0  0
 14 27  1  0  0  0  0
 27 28  1  0  0  0  0
 27 29  2  0  0  0  0
 28 30  2  0  0  0  0
 30 31  1  0  0  0  0
 31 32  2  0  0  0  0
 32 33  1  0  0  0  0
 33 34  2  0  0  0  0
 34 35  1  0  0  0  0
 35 36  2  0  0  0  0
 36 31  1  0  0  0  0
 34 37  1  0  0  0  0
 35 38  1  0  0  0  0
M  END
>  <cdx:groupId>
119

>  <cdx:fragmentId>
33

$$$$
