99240.cdx
  Mrv1902 05222410252D          

 21 20  0  0  0  0            999 V2000
    2.0256   -8.5938    0.0000 C   0  0  0  0  0  0  0  0  0  0  0  0
    2.7401   -8.1813    0.0000 C   0  0  0  0  0  0  0  0  0  0  0  0
    3.4546   -8.5938    0.0000 C   0  0  0  0  0  0  0  0  0  0  0  0
    4.1691   -8.1813    0.0000 C   0  0  0  0  0  0  0  0  0  0  0  0
    4.8835   -8.5938    0.0000 C   0  0  0  0  0  0  0  0  0  0  0  0
    5.5980   -8.1813    0.0000 C   0  0  0  0  0  0  0  0  0  0  0  0
    6.3125   -8.5938    0.0000 C   0  0  0  0  0  0  0  0  0  0  0  0
    7.0269   -8.1813    0.0000 C   0  0  0  0  0  0  0  0  0  0  0  0
    7.7414   -8.5938    0.0000 C   0  0  0  0  0  0  0  0  0  0  0  0
    8.4559   -8.1813    0.0000 C   0  0  0  0  0  0  0  0  0  0  0  0
    9.1704   -8.5938    0.0000 C   0  0  0  0  0  0  0  0  0  0  0  0
    9.8848   -8.1813    0.0000 C   0  0  0  0  0  0  0  0  0  0  0  0
   10.5993   -8.5938    0.0000 C   0  0  0  0  0  0  0  0  0  0  0  0
   11.3138   -8.1813    0.0000 C   0  0  0  0  0  0  0  0  0  0  0  0
   12.0282   -8.5938    0.0000 C   0  0  0  0  0  0  0  0  0  0  0  0
   12.7427   -8.1813    0.0000 C   0  0  0  0  0  0  0  0  0  0  0  0
   13.4572   -8.5938    0.0000 C   0  0  0  0  0  0  0  0  0  0  0  0
   14.1717   -8.1813    0.0000 C   0  0  0  0  0  0  0  0  0  0  0  0
    1.3112   -8.1813    0.0000 O   0  0  0  0  0  0  0  0  0  0  0  0
    0.5967   -8.5938    0.0000 C   0  0  0  0  0  0  0  0  0  0  0  0
    2.0256   -9.4187    0.0000 O   0  0  0  0  0  0  0  0  0  0  0  0
  1  2  1  0  0  0  0
  2  3  1  0  0  0  0
  3  4  1  0  0  0  0
  4  5  1  0  0  0  0
  5  6  1  0  0  0  0
  6  7  1  0  0  0  0
  7  8  1  0  0  0  0
  8  9  2  0  0  0  0
  9 10  1  0  0  0  0
 10 11  1  0  0  0  0
 11 12  1  0  0  0  0
 12 13  1  0  0  0  0
 13 14  1  0  0  0  0
 14 15  1  0  0  0  0
 15 16  1  0  0  0  0
 16 17  1  0  0  0  0
 17 18  1  0  0  0  0
  1 19  1  0  0  0  0
 19 20  1  0  0  0  0
  1 21  2  0  0  0  0
M  END
>  <cdx:fragmentId>
3

$$$$
