99245.cdx
  Mrv1902 05222410232D          

 34 36  0  0  0  0            999 V2000
    6.3984   -7.1447    0.0000 C   0  0  2  0  0  0  0  0  0  0  0  0
    6.3984   -7.9697    0.0000 C   0  0  2  0  0  0  0  0  0  0  0  0
    7.1129   -8.3822    0.0000 C   0  0  1  0  0  0  0  0  0  0  0  0
    7.8274   -7.9697    0.0000 C   0  0  2  0  0  0  0  0  0  0  0  0
    7.8274   -7.1447    0.0000 C   0  0  2  0  0  0  0  0  0  0  0  0
    7.1129   -6.7322    0.0000 O   0  0  0  0  0  0  0  0  0  0  0  0
    5.6839   -6.7322    0.0000 C   0  0  0  0  0  0  0  0  0  0  0  0
    7.1129   -9.2072    0.0000 O   0  0  0  0  0  0  0  0  0  0  0  0
    8.5418   -6.7322    0.0000 O   0  0  0  0  0  0  0  0  0  0  0  0
    5.6839   -8.3822    0.0000 O   0  0  0  0  0  0  0  0  0  0  0  0
    8.5418   -8.3822    0.0000 O   0  0  0  0  0  0  0  0  0  0  0  0
    4.9695   -7.1447    0.0000 O   0  0  0  0  0  0  0  0  0  0  0  0
    4.2550   -6.7322    0.0000 C   0  0  0  0  0  0  0  0  0  0  0  0
    3.5405   -7.1447    0.0000 C   0  0  0  0  0  0  0  0  0  0  0  0
    4.2550   -5.9072    0.0000 O   0  0  0  0  0  0  0  0  0  0  0  0
    2.8261   -6.7322    0.0000 C   0  0  0  0  0  0  0  0  0  0  0  0
    2.8261   -5.9072    0.0000 C   0  0  0  0  0  0  0  0  0  0  0  0
    2.1116   -5.4947    0.0000 C   0  0  0  0  0  0  0  0  0  0  0  0
    1.3971   -5.9072    0.0000 C   0  0  0  0  0  0  0  0  0  0  0  0
    1.3971   -6.7322    0.0000 C   0  0  0  0  0  0  0  0  0  0  0  0
    2.1116   -7.1447    0.0000 C   0  0  0  0  0  0  0  0  0  0  0  0
    2.8261   -7.5572    0.0000 O   0  0  0  0  0  0  0  0  0  0  0  0
    0.6826   -5.4947    0.0000 O   0  0  0  0  0  0  0  0  0  0  0  0
    9.2563   -7.9697    0.0000 C   0  0  0  0  0  0  0  0  0  0  0  0
    9.9708   -8.3822    0.0000 C   0  0  0  0  0  0  0  0  0  0  0  0
    9.2563   -7.1447    0.0000 O   0  0  0  0  0  0  0  0  0  0  0  0
   10.6852   -7.9697    0.0000 C   0  0  0  0  0  0  0  0  0  0  0  0
   11.3997   -8.3822    0.0000 C   0  0  0  0  0  0  0  0  0  0  0  0
   11.3997   -9.2072    0.0000 C   0  0  0  0  0  0  0  0  0  0  0  0
   12.1142   -9.6197    0.0000 C   0  0  0  0  0  0  0  0  0  0  0  0
   12.8287   -9.2072    0.0000 C   0  0  0  0  0  0  0  0  0  0  0  0
   12.8287   -8.3822    0.0000 C   0  0  0  0  0  0  0  0  0  0  0  0
   12.1142   -7.9697    0.0000 C   0  0  0  0  0  0  0  0  0  0  0  0
   13.5431   -9.6197    0.0000 O   0  0  0  0  0  0  0  0  0  0  0  0
  1  2  1  0  0  0  0
  2  3  1  0  0  0  0
  3  4  1  0  0  0  0
  4  5  1  0  0  0  0
  5  6  1  0  0  0  0
  6  1  1  0  0  0  0
  1  7  1  1  0  0  0
  3  8  1  1  0  0  0
  5  9  1  6  0  0  0
  2 10  1  6  0  0  0
  4 11  1  6  0  0  0
  7 12  1  0  0  0  0
 12 13  1  0  0  0  0
 13 14  1  0  0  0  0
 13 15  2  0  0  0  0
 14 16  1  0  0  0  0
 16 17  1  0  0  0  0
 17 18  2  0  0  0  0
 18 19  1  0  0  0  0
 19 20  1  0  0  0  0
 20 21  2  0  0  0  0
 21 16  1  0  0  0  0
 16 22  1  0  0  0  0
 19 23  2  0  0  0  0
 11 24  1  0  0  0  0
 24 25  1  0  0  0  0
 24 26  2  0  0  0  0
 25 27  2  0  0  0  0
 27 28  1  0  0  0  0
 28 29  2  0  0  0  0
 29 30  1  0  0  0  0
 30 31  2  0  0  0  0
 31 32  1  0  0  0  0
 32 33  2  0  0  0  0
 33 28  1  0  0  0  0
 31 34  1  0  0  0  0
M  END
>  <cdx:fragmentId>
336

$$$$
