99246.cdx
  Mrv1902 05222410242D          

 20 19  0  0  0  0            999 V2000
    9.9487   -5.9820    0.0000 O   0  0  0  0  0  0  0  0  0  0  0  0
   10.6632   -7.2195    0.0000 O   0  0  0  0  0  0  0  0  0  0  0  0
    4.9474   -8.0445    0.0000 O   0  0  0  0  0  0  0  0  0  0  0  0
    4.2329   -6.8070    0.0000 O   0  0  0  0  0  0  0  0  0  0  0  0
   10.6632   -8.0445    0.0000 O   0  0  0  0  0  0  0  0  0  0  0  0
    9.9487   -6.8070    0.0000 C   0  0  0  0  0  0  0  0  0  0  0  0
    7.8053   -8.0445    0.0000 O   0  0  0  0  0  0  0  0  0  0  0  0
    4.9474   -7.2195    0.0000 C   0  0  0  0  0  0  0  0  0  0  0  0
   10.6632  -10.5195    0.0000 C   0  0  0  0  0  0  0  0  0  0  0  0
   10.6632   -9.6945    0.0000 C   0  0  0  0  0  0  0  0  0  0  0  0
    9.9487   -9.2820    0.0000 C   0  0  0  0  0  0  0  0  0  0  0  0
    9.9487   -8.4570    0.0000 S   0  0  0  0  0  0  0  0  0  0  0  0
    9.2342   -8.0445    0.0000 C   0  0  0  0  0  0  0  0  0  0  0  0
    9.2342   -7.2195    0.0000 C   0  0  2  0  0  0  0  0  0  0  0  0
    8.5197   -6.8070    0.0000 N   0  0  0  0  0  0  0  0  0  0  0  0
    7.8053   -7.2195    0.0000 C   0  0  0  0  0  0  0  0  0  0  0  0
    7.0908   -6.8070    0.0000 C   0  0  0  0  0  0  0  0  0  0  0  0
    6.3763   -7.2195    0.0000 C   0  0  0  0  0  0  0  0  0  0  0  0
    5.6619   -6.8070    0.0000 C   0  0  2  0  0  0  0  0  0  0  0  0
    5.6619   -5.9820    0.0000 N   0  0  0  0  0  0  0  0  0  0  0  0
  6  1  2  0  0  0  0
  6  2  1  0  0  0  0
  8  3  2  0  0  0  0
  8  4  1  0  0  0  0
 12  5  2  0  0  0  0
 14  6  1  0  0  0  0
 16  7  2  0  0  0  0
 19  8  1  0  0  0  0
 10  9  1  0  0  0  0
 11 10  2  0  0  0  0
 12 11  1  0  0  0  0
 13 12  1  0  0  0  0
 14 13  1  0  0  0  0
 14 15  1  6  0  0  0
 16 15  1  0  0  0  0
 17 16  1  0  0  0  0
 18 17  1  0  0  0  0
 19 18  1  0  0  0  0
 19 20  1  1  0  0  0
M  END
>  <cdx:fragmentId>
3

$$$$
