6992421.cdx
  Mrv1902 05222410282D          

  7  6  0  0  0  0            999 V2000
    9.2607   -6.3742    0.0000 C   0  0  0  0  0  0  0  0  0  0  0  0
    8.5462   -6.7867    0.0000 C   0  0  0  0  0  0  0  0  0  0  0  0
    7.8317   -6.3742    0.0000 C   0  0  1  0  0  0  0  0  0  0  0  0
    7.1173   -6.7867    0.0000 C   0  0  0  0  0  0  0  0  0  0  0  0
    6.4028   -6.3742    0.0000 C   0  0  0  0  0  0  0  0  0  0  0  0
    5.6883   -6.7867    0.0000 C   0  0  0  0  0  0  0  0  0  0  0  0
    7.8317   -5.5492    0.0000 O   0  0  0  0  0  0  0  0  0  0  0  0
  1  2  2  0  0  0  0
  2  3  1  0  0  0  0
  3  4  1  0  0  0  0
  4  5  1  0  0  0  0
  5  6  1  0  0  0  0
  3  7  1  1  0  0  0
M  END
>  <cdx:groupId>
22

>  <cdx:fragmentId>
5

$$$$
