99250.cdx
  Mrv1902 05222410232D          

 40 44  0  0  0  0            999 V2000
    5.3381  -10.6815    0.0000 O   0  0  0  0  0  0  0  0  0  0  0  0
    3.2082  -11.1820    0.0000 C   0  0  2  0  0  0  0  0  0  0  0  0
    3.2368  -12.0065    0.0000 C   0  0  2  0  0  0  0  0  0  0  0  0
    3.9651  -12.3941    0.0000 C   0  0  1  0  0  0  0  0  0  0  0  0
    4.6649  -11.9571    0.0000 C   0  0  2  0  0  0  0  0  0  0  0  0
    4.6363  -11.1326    0.0000 C   0  0  1  0  0  0  0  0  0  0  0  0
    3.9080  -10.7450    0.0000 O   0  0  0  0  0  0  0  0  0  0  0  0
    2.4799  -10.7945    0.0000 C   0  0  0  0  0  0  0  0  0  0  0  0
    3.9937  -13.2186    0.0000 O   0  0  0  0  0  0  0  0  0  0  0  0
    2.5370  -12.4435    0.0000 O   0  0  0  0  0  0  0  0  0  0  0  0
    5.3932  -12.3446    0.0000 O   0  0  0  0  0  0  0  0  0  0  0  0
    1.7802  -11.2315    0.0000 O   0  0  0  0  0  0  0  0  0  0  0  0
    9.7168   -2.8772    0.0000 C   0  0  0  0  0  0  0  0  0  0  0  0
   10.5755   -4.8840    0.0000 C   0  0  0  0  0  0  0  0  0  0  0  0
   10.0205   -4.2735    0.0000 O   0  0  0  0  0  0  0  0  0  0  0  0
    8.9106   -3.0526    0.0000 O   0  0  0  0  0  0  0  0  0  0  0  0
    7.5495   -2.6175    0.0000 C   0  0  0  0  0  0  0  0  0  0  0  0
    7.2983   -3.4033    0.0000 O   0  0  0  0  0  0  0  0  0  0  0  0
    8.9632   -5.2347    0.0000 C   0  0  0  0  0  0  0  0  0  0  0  0
    9.2144   -4.4489    0.0000 C   0  0  0  0  0  0  0  0  0  0  0  0
    8.6594   -3.8384    0.0000 C   0  0  0  0  0  0  0  0  0  0  0  0
    7.8533   -4.0138    0.0000 C   0  0  0  0  0  0  0  0  0  0  0  0
    7.6021   -4.7996    0.0000 C   0  0  0  0  0  0  0  0  0  0  0  0
    8.1570   -5.4101    0.0000 C   0  0  0  0  0  0  0  0  0  0  0  0
    7.9122   -7.5308    0.0000 C   0  0  0  0  0  0  0  0  0  0  0  0
    8.3939   -6.8610    0.0000 O   0  0  0  0  0  0  0  0  0  0  0  0
    7.9058   -6.1959    0.0000 C   0  0  1  0  0  0  0  0  0  0  0  0
    7.1263   -7.2796    0.0000 C   0  0  1  0  0  0  0  0  0  0  0  0
    7.1224   -6.4546    0.0000 C   0  0  2  0  0  0  0  0  0  0  0  0
    6.3366   -6.2034    0.0000 C   0  0  0  0  0  0  0  0  0  0  0  0
    5.8549   -6.8731    0.0000 O   0  0  0  0  0  0  0  0  0  0  0  0
    6.3429   -7.5382    0.0000 C   0  0  2  0  0  0  0  0  0  0  0  0
    6.6467   -8.9345    0.0000 C   0  0  0  0  0  0  0  0  0  0  0  0
    6.0917   -8.3241    0.0000 C   0  0  0  0  0  0  0  0  0  0  0  0
    5.2856   -8.4994    0.0000 C   0  0  0  0  0  0  0  0  0  0  0  0
    5.0344   -9.2852    0.0000 C   0  0  0  0  0  0  0  0  0  0  0  0
    5.5893   -9.8957    0.0000 C   0  0  0  0  0  0  0  0  0  0  0  0
    6.3955   -9.7203    0.0000 C   0  0  0  0  0  0  0  0  0  0  0  0
    7.1185   -5.6296    0.0000 H   0  0  0  0  0  0  0  0  0  0  0  0
    7.1303   -8.1046    0.0000 H   0  0  0  0  0  0  0  0  0  0  0  0
  2  3  1  0  0  0  0
  3  4  1  0  0  0  0
  4  5  1  0  0  0  0
  5  6  1  0  0  0  0
  6  7  1  0  0  0  0
  7  2  1  0  0  0  0
  2  8  1  1  0  0  0
  4  9  1  1  0  0  0
  3 10  1  6  0  0  0
  5 11  1  6  0  0  0
  8 12  1  0  0  0  0
 16 13  1  0  0  0  0
 15 14  1  0  0  0  0
 20 15  1  0  0  0  0
 21 16  1  0  0  0  0
 18 17  1  0  0  0  0
 22 18  1  0  0  0  0
 19 24  1  0  0  0  0
 20 19  2  0  0  0  0
 21 20  1  0  0  0  0
 22 21  2  0  0  0  0
 23 22  1  0  0  0  0
 24 23  2  0  0  0  0
 27 24  1  1  0  0  0
 25 28  1  0  0  0  0
 26 25  1  0  0  0  0
 27 26  1  0  0  0  0
 29 27  1  0  0  0  0
 28 32  1  0  0  0  0
 29 28  1  0  0  0  0
 30 29  1  0  0  0  0
 31 30  1  0  0  0  0
 32 31  1  0  0  0  0
 32 34  1  1  0  0  0
 37  1  1  0  0  0  0
  6  1  1  1  0  0  0
 33 38  1  0  0  0  0
 34 33  2  0  0  0  0
 35 34  1  0  0  0  0
 36 35  2  0  0  0  0
 37 36  1  0  0  0  0
 38 37  2  0  0  0  0
 29 39  1  1  0  0  0
 28 40  1  1  0  0  0
M  END
>  <cdx:fragmentId>
5

$$$$
