99258.cdx
  Mrv1902 05222410212D          

 23 25  0  0  0  0            999 V2000
    5.0077   -7.4525    0.0000 C   0  0  0  0  0  0  0  0  0  0  0  0
    4.2919   -7.8627    0.0000 C   0  0  0  0  0  0  0  0  0  0  0  0
    4.2893   -8.6877    0.0000 C   0  0  0  0  0  0  0  0  0  0  0  0
    3.5735   -9.0979    0.0000 N   0  0  0  0  0  0  0  0  0  0  0  0
    5.0024   -9.1025    0.0000 O   0  0  0  0  0  0  0  0  0  0  0  0
    2.8604   -8.6831    0.0000 C   0  0  0  0  0  0  0  0  0  0  0  0
    2.1446   -9.0933    0.0000 C   0  0  0  0  0  0  0  0  0  0  0  0
    2.1419   -9.9183    0.0000 C   0  0  0  0  0  0  0  0  0  0  0  0
    2.8551  -10.3331    0.0000 C   0  0  0  0  0  0  0  0  0  0  0  0
    3.5708   -9.9229    0.0000 C   0  0  0  0  0  0  0  0  0  0  0  0
    5.7222   -7.8650    0.0000 C   0  0  0  0  0  0  0  0  0  0  0  0
    6.4367   -7.4525    0.0000 C   0  0  0  0  0  0  0  0  0  0  0  0
    7.1511   -7.8650    0.0000 C   0  0  0  0  0  0  0  0  0  0  0  0
    7.8656   -7.4525    0.0000 C   0  0  0  0  0  0  0  0  0  0  0  0
   10.7936   -8.9449    0.0000 O   0  0  0  0  0  0  0  0  0  0  0  0
   11.2786   -8.2775    0.0000 C   0  0  0  0  0  0  0  0  0  0  0  0
   10.7936   -7.6101    0.0000 O   0  0  0  0  0  0  0  0  0  0  0  0
    9.2946   -7.4525    0.0000 C   0  0  0  0  0  0  0  0  0  0  0  0
    8.5801   -7.8650    0.0000 C   0  0  0  0  0  0  0  0  0  0  0  0
    8.5801   -8.6900    0.0000 C   0  0  0  0  0  0  0  0  0  0  0  0
    9.2946   -9.1025    0.0000 C   0  0  0  0  0  0  0  0  0  0  0  0
   10.0090   -8.6900    0.0000 C   0  0  0  0  0  0  0  0  0  0  0  0
   10.0090   -7.8650    0.0000 C   0  0  0  0  0  0  0  0  0  0  0  0
  1  2  2  0  0  0  0
  2  3  1  0  0  0  0
  3  4  1  0  0  0  0
  3  5  2  0  0  0  0
  4  6  1  0  0  0  0
  6  7  1  0  0  0  0
  7  8  1  0  0  0  0
  8  9  1  0  0  0  0
  9 10  1  0  0  0  0
 11  1  1  0  0  0  0
 10  4  1  0  0  0  0
 12 11  2  0  0  0  0
 13 12  1  0  0  0  0
 14 13  2  0  0  0  0
 19 14  1  0  0  0  0
 15 22  1  0  0  0  0
 16 15  1  0  0  0  0
 17 16  1  0  0  0  0
 23 17  1  0  0  0  0
 18 23  1  0  0  0  0
 19 18  2  0  0  0  0
 20 19  1  0  0  0  0
 21 20  2  0  0  0  0
 22 21  1  0  0  0  0
 23 22  2  0  0  0  0
M  END
>  <cdx:fragmentId>
5

$$$$
