99252.cdx
  Mrv1902 05222410242D          

 60 67  0  0  0  0            999 V2000
    7.4018  -11.4083    0.0000 H   0  0  0  0  0  0  0  0  0  0  0  0
    9.5548  -10.1792    0.0000 H   0  0  0  0  0  0  0  0  0  0  0  0
   11.2542   -7.9800    0.0000 H   0  0  0  0  0  0  0  0  0  0  0  0
   11.4118   -6.5597    0.0000 H   0  0  0  0  0  0  0  0  0  0  0  0
    8.8173   -7.5844    0.0000 H   0  0  0  0  0  0  0  0  0  0  0  0
    8.5421   -7.8792    0.0000 H   0  0  0  0  0  0  0  0  0  0  0  0
    9.5983   -4.2019    0.0000 C   0  0  0  0  0  0  0  0  0  0  0  0
   11.6786   -6.8932    0.0000 C   0  0  0  0  0  0  0  0  0  0  0  0
    7.4114   -8.9334    0.0000 C   0  0  0  0  0  0  0  0  0  0  0  0
    6.6850  -11.8167    0.0000 O   0  0  0  0  0  0  0  0  0  0  0  0
    5.2609  -10.9834    0.0000 O   0  0  0  0  0  0  0  0  0  0  0  0
    9.5476  -11.0083    0.0000 O   0  0  0  0  0  0  0  0  0  0  0  0
    9.8691   -9.9327    0.0000 O   0  0  0  0  0  0  0  0  0  0  0  0
   10.6078  -10.0648    0.0000 O   0  0  0  0  0  0  0  0  0  0  0  0
   11.5853   -8.7356    0.0000 O   0  0  0  0  0  0  0  0  0  0  0  0
   11.5876   -7.7131    0.0000 O   0  0  0  0  0  0  0  0  0  0  0  0
    8.3045   -8.5441    0.0000 C   0  0  0  0  0  0  0  0  0  0  0  0
    8.1283   -9.3500    0.0000 C   0  0  2  0  0  0  0  0  0  0  0  0
    6.9024   -9.7264    0.0000 O   0  0  0  0  0  0  0  0  0  0  0  0
    6.6898  -10.9917    0.0000 C   0  0  1  0  0  0  0  0  0  0  0  0
    5.9777  -10.5751    0.0000 C   0  0  2  0  0  0  0  0  0  0  0  0
    5.9825   -9.7501    0.0000 C   0  0  0  0  0  0  0  0  0  0  0  0
    6.6994   -9.3417    0.0000 C   0  0  0  0  0  0  0  0  0  0  0  0
    7.4114   -9.7584    0.0000 C   0  0  2  0  0  0  0  0  0  0  0  0
    7.4066  -10.5834    0.0000 C   0  0  2  0  0  0  0  0  0  0  0  0
    8.1187  -11.0000    0.0000 C   0  0  0  0  0  0  0  0  0  0  0  0
    8.8356  -10.5916    0.0000 C   0  0  2  0  0  0  0  0  0  0  0  0
    8.8403   -9.7667    0.0000 C   0  0  1  0  0  0  0  0  0  0  0  0
    9.4566   -9.2182    0.0000 C   0  0  1  0  0  0  0  0  0  0  0  0
   10.2766   -9.3092    0.0000 C   0  0  2  0  0  0  0  0  0  0  0  0
   10.7654   -8.6446    0.0000 C   0  0  1  0  0  0  0  0  0  0  0  0
   10.4342   -7.8890    0.0000 C   0  0  2  0  0  0  0  0  0  0  0  0
   10.9230   -7.2244    0.0000 C   0  0  2  0  0  0  0  0  0  0  0  0
   10.5918   -6.4687    0.0000 C   0  0  2  0  0  0  0  0  0  0  0  0
   11.0806   -5.8041    0.0000 C   0  0  0  0  0  0  0  0  0  0  0  0
   10.7494   -5.0485    0.0000 C   0  0  0  0  0  0  0  0  0  0  0  0
    9.9295   -4.9575    0.0000 C   0  0  1  0  0  0  0  0  0  0  0  0
    9.4407   -5.6221    0.0000 C   0  0  0  0  0  0  0  0  0  0  0  0
    9.7718   -6.3777    0.0000 N   0  0  0  0  0  0  0  0  0  0  0  0
    9.2831   -7.0424    0.0000 C   0  0  0  0  0  0  0  0  0  0  0  0
    9.6142   -7.7980    0.0000 C   0  0  1  0  0  0  0  0  0  0  0  0
    9.1254   -8.4626    0.0000 C   0  0  2  0  0  0  0  0  0  0  0  0
    4.5488  -10.5668    0.0000 C   0  0  0  0  0  0  0  0  0  0  0  0
    3.8319  -10.9751    0.0000 C   0  0  0  0  0  0  0  0  0  0  0  0
    4.5536   -9.7418    0.0000 O   0  0  0  0  0  0  0  0  0  0  0  0
    3.1223  -10.5544    0.0000 C   0  0  0  0  0  0  0  0  0  0  0  0
    2.4031  -10.9751    0.0000 C   0  0  0  0  0  0  0  0  0  0  0  0
    2.4031  -11.8001    0.0000 C   0  0  0  0  0  0  0  0  0  0  0  0
    3.1223  -12.2208    0.0000 C   0  0  0  0  0  0  0  0  0  0  0  0
    3.8319  -11.8001    0.0000 C   0  0  0  0  0  0  0  0  0  0  0  0
    1.6874  -10.5647    0.0000 O   0  0  0  0  0  0  0  0  0  0  0  0
    1.6874  -12.2105    0.0000 O   0  0  0  0  0  0  0  0  0  0  0  0
    0.9742  -10.9792    0.0000 C   0  0  0  0  0  0  0  0  0  0  0  0
    0.9742  -11.7960    0.0000 C   0  0  0  0  0  0  0  0  0  0  0  0
   11.4277  -10.1558    0.0000 C   0  0  0  0  0  0  0  0  0  0  0  0
   11.9165   -9.4912    0.0000 C   0  0  0  0  0  0  0  0  0  0  0  0
   11.7589  -10.9114    0.0000 O   0  0  0  0  0  0  0  0  0  0  0  0
    9.5428  -11.8333    0.0000 C   0  0  0  0  0  0  0  0  0  0  0  0
   10.2549  -12.2499    0.0000 O   0  0  0  0  0  0  0  0  0  0  0  0
    8.8260  -12.2416    0.0000 C   0  0  0  0  0  0  0  0  0  0  0  0
 25  1  1  1  0  0  0
 28  2  1  1  0  0  0
 32  3  1  6  0  0  0
 34  4  1  6  0  0  0
 41  5  1  1  0  0  0
 42  6  1  6  0  0  0
 37  7  1  1  0  0  0
 33  8  1  6  0  0  0
 24  9  1  1  0  0  0
 20 10  1  6  0  0  0
 21 11  1  1  0  0  0
 27 12  1  6  0  0  0
 29 13  1  6  0  0  0
 30 14  1  6  0  0  0
 31 15  1  1  0  0  0
 33 16  1  1  0  0  0
 39 34  1  0  0  0  0
 41 32  1  0  0  0  0
 25 20  1  0  0  0  0
 28 18  1  0  0  0  0
 24 18  1  0  0  0  0
 42 29  1  0  0  0  0
 42 17  1  0  0  0  0
 18 17  1  1  0  0  0
 18 19  1  0  0  0  0
 20 19  1  0  0  0  0
 21 20  1  0  0  0  0
 22 21  1  0  0  0  0
 23 22  1  0  0  0  0
 24 23  1  0  0  0  0
 25 24  1  0  0  0  0
 26 25  1  0  0  0  0
 27 26  1  0  0  0  0
 28 27  1  0  0  0  0
 29 28  1  0  0  0  0
 30 29  1  0  0  0  0
 31 30  1  0  0  0  0
 32 31  1  0  0  0  0
 33 32  1  0  0  0  0
 34 33  1  0  0  0  0
 35 34  1  0  0  0  0
 36 35  1  0  0  0  0
 37 36  1  0  0  0  0
 38 37  1  0  0  0  0
 39 38  1  0  0  0  0
 40 39  1  0  0  0  0
 41 40  1  0  0  0  0
 42 41  1  0  0  0  0
 11 43  1  0  0  0  0
 43 44  1  0  0  0  0
 43 45  2  0  0  0  0
 44 46  2  0  0  0  0
 46 47  1  0  0  0  0
 47 48  2  0  0  0  0
 48 49  1  0  0  0  0
 49 50  2  0  0  0  0
 50 44  1  0  0  0  0
 47 51  1  0  0  0  0
 48 52  1  0  0  0  0
 51 53  1  0  0  0  0
 52 54  1  0  0  0  0
 14 55  1  0  0  0  0
 55 56  1  0  0  0  0
 55 57  2  0  0  0  0
 12 58  1  0  0  0  0
 58 59  2  0  0  0  0
 58 60  1  0  0  0  0
M  END
>  <cdx:groupId>
6313

>  <cdx:fragmentId>
6184

$$$$
