99255.cdx
  Mrv1902 05222410252D          

 44 48  0  0  0  0            999 V2000
    8.9818   -7.0210    0.0000 O   0  0  0  0  0  0  0  0  0  0  0  0
    8.9818   -5.3710    0.0000 O   0  0  0  0  0  0  0  0  0  0  0  0
    6.8384   -5.7835    0.0000 C   0  0  0  0  0  0  0  0  0  0  0  0
    7.5529   -5.3710    0.0000 C   0  0  0  0  0  0  0  0  0  0  0  0
    8.2674   -5.7835    0.0000 C   0  0  0  0  0  0  0  0  0  0  0  0
    8.2674   -6.6085    0.0000 C   0  0  0  0  0  0  0  0  0  0  0  0
    7.5529   -7.0210    0.0000 C   0  0  0  0  0  0  0  0  0  0  0  0
    6.8384   -6.6085    0.0000 C   0  0  0  0  0  0  0  0  0  0  0  0
    3.9805   -9.0835    0.0000 O   0  0  0  0  0  0  0  0  0  0  0  0
    2.5516   -6.6085    0.0000 O   0  0  0  0  0  0  0  0  0  0  0  0
    5.4095   -9.0835    0.0000 O   0  0  0  0  0  0  0  0  0  0  0  0
    5.4095   -6.6085    0.0000 O   0  0  0  0  0  0  0  0  0  0  0  0
    4.6950   -7.0210    0.0000 C   0  0  0  0  0  0  0  0  0  0  0  0
    3.9805   -6.6085    0.0000 C   0  0  0  0  0  0  0  0  0  0  0  0
    3.2661   -7.0210    0.0000 C   0  0  0  0  0  0  0  0  0  0  0  0
    3.2661   -7.8460    0.0000 C   0  0  0  0  0  0  0  0  0  0  0  0
    3.9805   -8.2585    0.0000 C   0  0  0  0  0  0  0  0  0  0  0  0
    4.6950   -7.8460    0.0000 C   0  0  0  0  0  0  0  0  0  0  0  0
    5.4095   -8.2585    0.0000 C   0  0  0  0  0  0  0  0  0  0  0  0
    6.1239   -7.8460    0.0000 C   0  0  0  0  0  0  0  0  0  0  0  0
    6.1239   -7.0210    0.0000 C   0  0  0  0  0  0  0  0  0  0  0  0
    6.8384   -8.2585    0.0000 O   0  0  0  0  0  0  0  0  0  0  0  0
    8.2674  -10.7335    0.0000 O   0  0  0  0  0  0  0  0  0  0  0  0
    6.8384  -11.5585    0.0000 O   0  0  0  0  0  0  0  0  0  0  0  0
    5.4095  -11.5585    0.0000 O   0  0  0  0  0  0  0  0  0  0  0  0
    5.4095  -10.7335    0.0000 C   0  0  0  0  0  0  0  0  0  0  0  0
    6.1239  -10.3210    0.0000 C   0  0  2  0  0  0  0  0  0  0  0  0
    6.8384  -10.7335    0.0000 C   0  0  1  0  0  0  0  0  0  0  0  0
    7.5529  -10.3210    0.0000 C   0  0  1  0  0  0  0  0  0  0  0  0
    7.5529   -9.4960    0.0000 C   0  0  2  0  0  0  0  0  0  0  0  0
    6.8384   -9.0835    0.0000 C   0  0  1  0  0  0  0  0  0  0  0  0
    6.1239   -9.4960    0.0000 O   0  0  0  0  0  0  0  0  0  0  0  0
   11.8397   -9.4960    0.0000 O   0  0  0  0  0  0  0  0  0  0  0  0
   11.8397   -7.8460    0.0000 O   0  0  0  0  0  0  0  0  0  0  0  0
   10.4108   -7.0210    0.0000 O   0  0  0  0  0  0  0  0  0  0  0  0
    8.2674   -9.0835    0.0000 O   0  0  0  0  0  0  0  0  0  0  0  0
    8.9818  -10.3210    0.0000 O   0  0  0  0  0  0  0  0  0  0  0  0
    9.6963   -8.2585    0.0000 C   0  0  0  0  0  0  0  0  0  0  0  0
   10.4108   -7.8460    0.0000 C   0  0  0  0  0  0  0  0  0  0  0  0
   11.1252   -8.2585    0.0000 C   0  0  0  0  0  0  0  0  0  0  0  0
   11.1252   -9.0835    0.0000 C   0  0  0  0  0  0  0  0  0  0  0  0
   10.4108   -9.4960    0.0000 C   0  0  0  0  0  0  0  0  0  0  0  0
    9.6963   -9.0835    0.0000 C   0  0  0  0  0  0  0  0  0  0  0  0
    8.9818   -9.4960    0.0000 C   0  0  0  0  0  0  0  0  0  0  0  0
 30 36  1  6  0  0  0
 31 22  1  1  0  0  0
 22 20  1  0  0  0  0
 21  8  1  0  0  0  0
  6  1  1  0  0  0  0
  5  2  1  0  0  0  0
  8  3  2  0  0  0  0
  4  3  1  0  0  0  0
  5  4  2  0  0  0  0
  6  5  1  0  0  0  0
  7  6  2  0  0  0  0
  8  7  1  0  0  0  0
 17  9  1  0  0  0  0
 15 10  1  0  0  0  0
 19 11  2  0  0  0  0
 21 12  1  0  0  0  0
 13 12  1  0  0  0  0
 18 13  2  0  0  0  0
 14 13  1  0  0  0  0
 15 14  2  0  0  0  0
 16 15  1  0  0  0  0
 17 16  2  0  0  0  0
 18 17  1  0  0  0  0
 19 18  1  0  0  0  0
 20 19  1  0  0  0  0
 21 20  2  0  0  0  0
 29 23  1  1  0  0  0
 28 24  1  1  0  0  0
 27 26  1  1  0  0  0
 26 25  1  0  0  0  0
 32 27  1  0  0  0  0
 28 27  1  0  0  0  0
 29 28  1  0  0  0  0
 30 29  1  0  0  0  0
 31 30  1  0  0  0  0
 32 31  1  0  0  0  0
 41 33  1  0  0  0  0
 40 34  1  0  0  0  0
 39 35  1  0  0  0  0
 44 36  1  0  0  0  0
 44 37  2  0  0  0  0
 43 38  2  0  0  0  0
 39 38  1  0  0  0  0
 40 39  2  0  0  0  0
 41 40  1  0  0  0  0
 42 41  2  0  0  0  0
 43 42  1  0  0  0  0
 44 43  1  0  0  0  0
M  END
>  <cdx:fragmentId>
51

$$$$
