99257.cdx
  Mrv1902 05222410252D          

 23 25  0  0  0  0            999 V2000
    2.8564   -7.4525    0.0000 C   0  0  0  0  0  0  0  0  0  0  0  0
    2.1419   -7.8650    0.0000 C   0  0  0  0  0  0  0  0  0  0  0  0
    2.1419   -8.6900    0.0000 C   0  0  0  0  0  0  0  0  0  0  0  0
    2.8564   -9.1025    0.0000 C   0  0  0  0  0  0  0  0  0  0  0  0
    3.5708   -8.6900    0.0000 C   0  0  0  0  0  0  0  0  0  0  0  0
    4.2853   -6.6275    0.0000 O   0  0  0  0  0  0  0  0  0  0  0  0
    3.5708   -7.8650    0.0000 N   0  0  0  0  0  0  0  0  0  0  0  0
    4.2853   -7.4525    0.0000 C   0  0  0  0  0  0  0  0  0  0  0  0
    4.9998   -7.8650    0.0000 C   0  0  0  0  0  0  0  0  0  0  0  0
    5.7142   -7.4525    0.0000 C   0  0  0  0  0  0  0  0  0  0  0  0
    6.4287   -7.8650    0.0000 C   0  0  0  0  0  0  0  0  0  0  0  0
    7.1432   -7.4525    0.0000 C   0  0  0  0  0  0  0  0  0  0  0  0
    7.8576   -7.8650    0.0000 C   0  0  0  0  0  0  0  0  0  0  0  0
    8.5721   -7.4525    0.0000 C   0  0  0  0  0  0  0  0  0  0  0  0
   11.5002   -8.9449    0.0000 O   0  0  0  0  0  0  0  0  0  0  0  0
   11.9851   -8.2775    0.0000 C   0  0  0  0  0  0  0  0  0  0  0  0
   11.5002   -7.6101    0.0000 O   0  0  0  0  0  0  0  0  0  0  0  0
   10.0011   -7.4525    0.0000 C   0  0  0  0  0  0  0  0  0  0  0  0
    9.2866   -7.8650    0.0000 C   0  0  0  0  0  0  0  0  0  0  0  0
    9.2866   -8.6900    0.0000 C   0  0  0  0  0  0  0  0  0  0  0  0
   10.0011   -9.1025    0.0000 C   0  0  0  0  0  0  0  0  0  0  0  0
   10.7155   -8.6900    0.0000 C   0  0  0  0  0  0  0  0  0  0  0  0
   10.7155   -7.8650    0.0000 C   0  0  0  0  0  0  0  0  0  0  0  0
  1  7  1  0  0  0  0
  2  1  1  0  0  0  0
  3  2  1  0  0  0  0
  4  3  1  0  0  0  0
  5  4  1  0  0  0  0
  7  5  1  0  0  0  0
  8  6  2  0  0  0  0
  8  7  1  0  0  0  0
  9  8  1  0  0  0  0
 10  9  2  0  0  0  0
 11 10  1  0  0  0  0
 12 11  2  0  0  0  0
 13 12  1  0  0  0  0
 14 13  2  0  0  0  0
 19 14  1  0  0  0  0
 15 22  1  0  0  0  0
 16 15  1  0  0  0  0
 17 16  1  0  0  0  0
 23 17  1  0  0  0  0
 18 23  1  0  0  0  0
 19 18  2  0  0  0  0
 20 19  1  0  0  0  0
 21 20  2  0  0  0  0
 22 21  1  0  0  0  0
 23 22  2  0  0  0  0
M  END
>  <cdx:fragmentId>
5

$$$$
