99259.cdx
  Mrv1902 05222410202D          

 23 25  0  0  0  0            999 V2000
    3.8885   -9.1012    0.0000 C   0  0  0  0  0  0  0  0  0  0  0  0
    4.6119  -11.1676    0.0000 C   0  0  0  0  0  0  0  0  0  0  0  0
    5.3256  -11.5814    0.0000 C   0  0  0  0  0  0  0  0  0  0  0  0
    6.0409  -11.1702    0.0000 C   0  0  0  0  0  0  0  0  0  0  0  0
    6.0424  -10.3452    0.0000 C   0  0  0  0  0  0  0  0  0  0  0  0
    5.3286   -9.9314    0.0000 C   0  0  0  0  0  0  0  0  0  0  0  0
    3.1845  -10.3400    0.0000 O   0  0  0  0  0  0  0  0  0  0  0  0
    4.6134  -10.3426    0.0000 N   0  0  0  0  0  0  0  0  0  0  0  0
    3.8997   -9.9288    0.0000 C   0  0  0  0  0  0  0  0  0  0  0  0
    4.6037   -8.6900    0.0000 C   0  0  0  0  0  0  0  0  0  0  0  0
    4.6052   -7.8650    0.0000 C   0  0  0  0  0  0  0  0  0  0  0  0
    5.3197   -7.4525    0.0000 C   0  0  0  0  0  0  0  0  0  0  0  0
    6.0342   -7.8650    0.0000 C   0  0  0  0  0  0  0  0  0  0  0  0
    6.7487   -7.4525    0.0000 C   0  0  0  0  0  0  0  0  0  0  0  0
    9.6767   -8.9449    0.0000 O   0  0  0  0  0  0  0  0  0  0  0  0
   10.1616   -8.2775    0.0000 C   0  0  0  0  0  0  0  0  0  0  0  0
    9.6767   -7.6101    0.0000 O   0  0  0  0  0  0  0  0  0  0  0  0
    8.1776   -7.4525    0.0000 C   0  0  0  0  0  0  0  0  0  0  0  0
    7.4631   -7.8650    0.0000 C   0  0  0  0  0  0  0  0  0  0  0  0
    7.4631   -8.6900    0.0000 C   0  0  0  0  0  0  0  0  0  0  0  0
    8.1776   -9.1025    0.0000 C   0  0  0  0  0  0  0  0  0  0  0  0
    8.8921   -8.6900    0.0000 C   0  0  0  0  0  0  0  0  0  0  0  0
    8.8921   -7.8650    0.0000 C   0  0  0  0  0  0  0  0  0  0  0  0
  9  1  1  0  0  0  0
 10  1  2  0  0  0  0
  2  8  1  0  0  0  0
  3  2  1  0  0  0  0
  4  3  1  0  0  0  0
  5  4  1  0  0  0  0
  6  5  1  0  0  0  0
  8  6  1  0  0  0  0
  9  7  2  0  0  0  0
  9  8  1  0  0  0  0
 11 10  1  0  0  0  0
 12 11  2  0  0  0  0
 13 12  1  0  0  0  0
 14 13  2  0  0  0  0
 19 14  1  0  0  0  0
 15 22  1  0  0  0  0
 16 15  1  0  0  0  0
 17 16  1  0  0  0  0
 23 17  1  0  0  0  0
 18 23  1  0  0  0  0
 19 18  2  0  0  0  0
 20 19  1  0  0  0  0
 21 20  2  0  0  0  0
 22 21  1  0  0  0  0
 23 22  2  0  0  0  0
M  END
>  <cdx:fragmentId>
5

$$$$
