99268.cdx
  Mrv1902 05222410262D          

 29 31  0  0  0  0            999 V2000
    4.5556  -10.5555    0.0000 C   0  0  0  0  0  0  0  0  0  0  0  0
    4.5426   -8.9055    0.0000 O   0  0  0  0  0  0  0  0  0  0  0  0
    5.2668  -10.1373    0.0000 C   0  0  0  0  0  0  0  0  0  0  0  0
    5.2603   -9.3124    0.0000 C   0  0  0  0  0  0  0  0  0  0  0  0
    5.9715   -8.8942    0.0000 O   0  0  0  0  0  0  0  0  0  0  0  0
    7.3801   -8.0711    0.0000 O   0  0  0  0  0  0  0  0  0  0  0  0
    6.6607   -7.6671    0.0000 C   0  0  0  0  0  0  0  0  0  0  0  0
    6.6509   -6.8421    0.0000 C   0  0  0  0  0  0  0  0  0  0  0  0
    5.9512   -8.0880    0.0000 O   0  0  0  0  0  0  0  0  0  0  0  0
    5.9316   -6.4382    0.0000 C   0  0  0  0  0  0  0  0  0  0  0  0
    7.3604   -6.4212    0.0000 C   0  0  0  0  0  0  0  0  0  0  0  0
    5.9218   -5.6132    0.0000 C   0  0  0  0  0  0  0  0  0  0  0  0
    5.9104   -9.9439    0.0000 C   0  0  0  0  0  0  0  0  0  0  0  0
    6.3074  -10.8665    0.0000 C   0  0  0  0  0  0  0  0  0  0  0  0
    9.5226   -6.8077    0.0000 O   0  0  0  0  0  0  0  0  0  0  0  0
    7.4076   -8.8993    0.0000 C   0  0  0  0  0  0  0  0  0  0  0  0
    6.6988   -9.3215    0.0000 C   0  0  0  0  0  0  0  0  0  0  0  0
    6.7101  -10.1465    0.0000 C   0  0  0  0  0  0  0  0  0  0  0  0
    7.4301  -10.5492    0.0000 O   0  0  0  0  0  0  0  0  0  0  0  0
   10.2652   -8.8602    0.0000 C   0  0  0  0  0  0  0  0  0  0  0  0
   10.2539   -8.0353    0.0000 C   0  0  0  0  0  0  0  0  0  0  0  0
    9.5339   -7.6326    0.0000 C   0  0  0  0  0  0  0  0  0  0  0  0
    8.8251   -8.0549    0.0000 O   0  0  0  0  0  0  0  0  0  0  0  0
    9.5677  -10.1074    0.0000 C   0  0  0  0  0  0  0  0  0  0  0  0
    9.5564   -9.2825    0.0000 C   0  0  0  0  0  0  0  0  0  0  0  0
    8.8364   -8.8798    0.0000 C   0  0  0  0  0  0  0  0  0  0  0  0
    8.1276   -9.3020    0.0000 C   0  0  0  0  0  0  0  0  0  0  0  0
    8.1389  -10.1269    0.0000 C   0  0  0  0  0  0  0  0  0  0  0  0
    8.8590  -10.5296    0.0000 C   0  0  0  0  0  0  0  0  0  0  0  0
 17  5  1  0  0  0  0
  3  1  1  0  0  0  0
  4  2  2  0  0  0  0
  4  3  1  0  0  0  0
  5  4  1  0  0  0  0
 16  6  1  0  0  0  0
  6  7  1  0  0  0  0
  7  8  1  0  0  0  0
  7  9  2  0  0  0  0
  8 10  1  0  0  0  0
  8 11  1  0  0  0  0
 10 12  1  0  0  0  0
 18 13  1  0  0  0  0
 18 14  1  0  0  0  0
 22 15  2  0  0  0  0
 16 27  1  0  0  0  0
 17 16  1  0  0  0  0
 18 17  1  0  0  0  0
 19 18  1  0  0  0  0
 28 19  1  0  0  0  0
 20 25  1  0  0  0  0
 21 20  2  0  0  0  0
 22 21  1  0  0  0  0
 23 22  1  0  0  0  0
 26 23  1  0  0  0  0
 24 29  1  0  0  0  0
 25 24  2  0  0  0  0
 26 25  1  0  0  0  0
 27 26  2  0  0  0  0
 28 27  1  0  0  0  0
 29 28  2  0  0  0  0
M  END
>  <cdx:fragmentId>
5

$$$$
