99260.cdx
  Mrv1902 05222410222D          

 23 25  0  0  0  0            999 V2000
    5.0308   -9.1012    0.0000 C   0  0  0  0  0  0  0  0  0  0  0  0
    2.8910   -8.6383    0.0000 C   0  0  0  0  0  0  0  0  0  0  0  0
    2.1652   -9.0306    0.0000 C   0  0  0  0  0  0  0  0  0  0  0  0
    2.1421   -9.8553    0.0000 C   0  0  0  0  0  0  0  0  0  0  0  0
    2.8447  -10.2876    0.0000 C   0  0  0  0  0  0  0  0  0  0  0  0
    3.5705   -9.8953    0.0000 C   0  0  0  0  0  0  0  0  0  0  0  0
    4.3425   -7.8536    0.0000 O   0  0  0  0  0  0  0  0  0  0  0  0
    3.5936   -9.0706    0.0000 N   0  0  0  0  0  0  0  0  0  0  0  0
    4.3193   -8.6783    0.0000 C   0  0  0  0  0  0  0  0  0  0  0  0
    5.7460   -8.6900    0.0000 C   0  0  0  0  0  0  0  0  0  0  0  0
    5.7475   -7.8650    0.0000 C   0  0  0  0  0  0  0  0  0  0  0  0
    6.4620   -7.4525    0.0000 C   0  0  0  0  0  0  0  0  0  0  0  0
    7.1765   -7.8650    0.0000 C   0  0  0  0  0  0  0  0  0  0  0  0
    7.8910   -7.4525    0.0000 C   0  0  0  0  0  0  0  0  0  0  0  0
   10.8190   -8.9449    0.0000 O   0  0  0  0  0  0  0  0  0  0  0  0
   11.3039   -8.2775    0.0000 C   0  0  0  0  0  0  0  0  0  0  0  0
   10.8190   -7.6101    0.0000 O   0  0  0  0  0  0  0  0  0  0  0  0
    9.3199   -7.4525    0.0000 C   0  0  0  0  0  0  0  0  0  0  0  0
    8.6054   -7.8650    0.0000 C   0  0  0  0  0  0  0  0  0  0  0  0
    8.6054   -8.6900    0.0000 C   0  0  0  0  0  0  0  0  0  0  0  0
    9.3199   -9.1025    0.0000 C   0  0  0  0  0  0  0  0  0  0  0  0
   10.0344   -8.6900    0.0000 C   0  0  0  0  0  0  0  0  0  0  0  0
   10.0344   -7.8650    0.0000 C   0  0  0  0  0  0  0  0  0  0  0  0
  9  1  1  0  0  0  0
 10  1  2  0  0  0  0
  2  8  1  0  0  0  0
  3  2  1  0  0  0  0
  4  3  1  0  0  0  0
  5  4  1  0  0  0  0
  6  5  1  0  0  0  0
  8  6  1  0  0  0  0
  9  7  2  0  0  0  0
  9  8  1  0  0  0  0
 11 10  1  0  0  0  0
 12 11  2  0  0  0  0
 13 12  1  0  0  0  0
 14 13  2  0  0  0  0
 19 14  1  0  0  0  0
 15 22  1  0  0  0  0
 16 15  1  0  0  0  0
 17 16  1  0  0  0  0
 23 17  1  0  0  0  0
 18 23  1  0  0  0  0
 19 18  2  0  0  0  0
 20 19  1  0  0  0  0
 21 20  2  0  0  0  0
 22 21  1  0  0  0  0
 23 22  2  0  0  0  0
M  END
>  <cdx:fragmentId>
5

$$$$
