99269.cdx
  Mrv1902 05222410252D          

 45 48  0  0  0  0            999 V2000
   10.5678   -7.9029    0.0000 H   0  0  0  0  0  0  0  0  0  0  0  0
   12.3184   -9.4074    0.0000 H   0  0  0  0  0  0  0  0  0  0  0  0
   12.2426  -10.0723    0.0000 H   0  0  0  0  0  0  0  0  0  0  0  0
    9.8355  -12.1937    0.0000 O   0  0  0  0  0  0  0  0  0  0  0  0
   10.4442  -12.7006    0.0000 O   0  0  0  0  0  0  0  0  0  0  0  0
   12.7623  -12.2348    0.0000 O   0  0  0  0  0  0  0  0  0  0  0  0
   11.9465  -12.3578    0.0000 C   0  0  0  0  0  0  0  0  0  0  0  0
    7.8882  -10.9694    0.0000 C   0  0  0  0  0  0  0  0  0  0  0  0
   11.8251   -7.5777    0.0000 C   0  0  0  0  0  0  0  0  0  0  0  0
   12.4508   -8.1154    0.0000 C   0  0  0  0  0  0  0  0  0  0  0  0
    8.6948   -9.7525    0.0000 C   0  0  0  0  0  0  0  0  0  0  0  0
   10.4442   -9.2383    0.0000 O   0  0  0  0  0  0  0  0  0  0  0  0
   10.6278  -10.0426    0.0000 C   0  0  0  0  0  0  0  0  0  0  0  0
    9.5198   -9.7525    0.0000 C   0  0  2  0  0  0  0  0  0  0  0  0
    9.8916   -8.9021    0.0000 C   0  0  0  0  0  0  0  0  0  0  0  0
   10.7964   -8.6956    0.0000 C   0  0  1  0  0  0  0  0  0  0  0  0
   11.6723   -8.3884    0.0000 C   0  0  0  0  0  0  0  0  0  0  0  0
   11.5004   -9.3005    0.0000 C   0  0  1  0  0  0  0  0  0  0  0  0
   11.4321  -10.2261    0.0000 C   0  0  2  0  0  0  0  0  0  0  0  0
   11.7900  -10.9694    0.0000 C   0  0  0  0  0  0  0  0  0  0  0  0
   11.4321  -11.7127    0.0000 C   0  0  0  0  0  0  0  0  0  0  0  0
   10.6278  -11.8963    0.0000 C   0  0  2  0  0  0  0  0  0  0  0  0
    9.9828  -11.3819    0.0000 C   0  0  1  0  0  0  0  0  0  0  0  0
    9.1981  -11.6369    0.0000 C   0  0  2  0  0  0  0  0  0  0  0  0
    8.7132  -10.9694    0.0000 C   0  0  0  0  0  0  0  0  0  0  0  0
    9.1981  -10.3020    0.0000 C   0  0  0  0  0  0  0  0  0  0  0  0
    9.9828  -10.5569    0.0000 C   0  0  0  0  0  0  0  0  0  0  0  0
    8.9432  -12.4215    0.0000 O   0  0  0  0  0  0  0  0  0  0  0  0
    7.8813  -13.3777    0.0000 O   0  0  0  0  0  0  0  0  0  0  0  0
    2.7002  -10.8268    0.0000 C   0  0  0  0  0  0  0  0  0  0  0  0
    3.5072  -10.6552    0.0000 C   0  0  0  0  0  0  0  0  0  0  0  0
    4.0592  -11.2683    0.0000 C   0  0  0  0  0  0  0  0  0  0  0  0
    4.8662  -11.0968    0.0000 C   0  0  0  0  0  0  0  0  0  0  0  0
    5.4182  -11.7099    0.0000 C   0  0  0  0  0  0  0  0  0  0  0  0
    6.2252  -11.5384    0.0000 C   0  0  0  0  0  0  0  0  0  0  0  0
    6.7772  -12.1515    0.0000 C   0  0  0  0  0  0  0  0  0  0  0  0
    7.5842  -11.9799    0.0000 C   0  0  0  0  0  0  0  0  0  0  0  0
    8.1362  -12.5930    0.0000 C   0  0  0  0  0  0  0  0  0  0  0  0
    1.2569   -6.0205    0.0000 C   0  0  0  0  0  0  0  0  0  0  0  0
    1.8089   -6.6336    0.0000 C   0  0  0  0  0  0  0  0  0  0  0  0
    1.5540   -7.4182    0.0000 C   0  0  0  0  0  0  0  0  0  0  0  0
    2.1060   -8.0313    0.0000 C   0  0  0  0  0  0  0  0  0  0  0  0
    1.8511   -8.8160    0.0000 C   0  0  0  0  0  0  0  0  0  0  0  0
    2.4031   -9.4291    0.0000 C   0  0  0  0  0  0  0  0  0  0  0  0
    2.1482  -10.2137    0.0000 C   0  0  0  0  0  0  0  0  0  0  0  0
 16  1  1  6  0  0  0
 18  2  1  6  0  0  0
 19  3  1  1  0  0  0
 24 28  1  1  0  0  0
 23  4  1  1  0  0  0
 22  5  1  1  0  0  0
 21  7  1  0  0  0  0
  7  6  1  0  0  0  0
 25  8  1  0  0  0  0
 17  9  1  0  0  0  0
 17 10  1  0  0  0  0
 14 11  1  6  0  0  0
 13 12  2  0  0  0  0
 27 23  1  0  0  0  0
 18 16  1  0  0  0  0
 19 13  1  0  0  0  0
 27 13  1  0  0  0  0
 27 14  1  0  0  0  0
 15 14  1  0  0  0  0
 16 15  1  0  0  0  0
 17 16  1  0  0  0  0
 18 17  1  0  0  0  0
 19 18  1  0  0  0  0
 20 19  1  0  0  0  0
 21 20  2  0  0  0  0
 22 21  1  0  0  0  0
 23 22  1  0  0  0  0
 24 23  1  0  0  0  0
 25 24  1  0  0  0  0
 26 25  2  0  0  0  0
 27 26  1  0  0  0  0
 38 28  1  0  0  0  0
 38 29  2  0  0  0  0
 30 45  2  0  0  0  0
 31 30  1  0  0  0  0
 32 31  1  0  0  0  0
 33 32  1  0  0  0  0
 34 33  1  0  0  0  0
 35 34  1  0  0  0  0
 36 35  1  0  0  0  0
 37 36  1  0  0  0  0
 38 37  1  0  0  0  0
 40 39  1  0  0  0  0
 41 40  1  0  0  0  0
 42 41  1  0  0  0  0
 43 42  1  0  0  0  0
 44 43  1  0  0  0  0
 45 44  1  0  0  0  0
M  END
>  <cdx:groupId>
947

>  <cdx:fragmentId>
854

$$$$
