99262.cdx
  Mrv1902 05222410222D          

 28 30  0  0  0  0            999 V2000
    6.1649   -7.8237    0.0000 C   0  0  0  0  0  0  0  0  0  0  0  0
    6.1649   -8.6487    0.0000 C   0  0  0  0  0  0  0  0  0  0  0  0
    6.8794   -9.0613    0.0000 O   0  0  0  0  0  0  0  0  0  0  0  0
    7.5939   -8.6487    0.0000 C   0  0  0  0  0  0  0  0  0  0  0  0
    7.5939   -7.8237    0.0000 C   0  0  0  0  0  0  0  0  0  0  0  0
    6.8794   -7.4112    0.0000 C   0  0  0  0  0  0  0  0  0  0  0  0
    8.3083   -9.0613    0.0000 C   0  0  0  0  0  0  0  0  0  0  0  0
    9.0228   -8.6487    0.0000 C   0  0  0  0  0  0  0  0  0  0  0  0
    9.0228   -7.8237    0.0000 C   0  0  0  0  0  0  0  0  0  0  0  0
    8.3083   -7.4112    0.0000 C   0  0  0  0  0  0  0  0  0  0  0  0
    9.7373   -9.0613    0.0000 O   0  0  0  0  0  0  0  0  0  0  0  0
   10.4518   -8.6487    0.0000 C   0  0  0  0  0  0  0  0  0  0  0  0
   10.4518   -7.8237    0.0000 C   0  0  0  0  0  0  0  0  0  0  0  0
    9.7373   -7.4112    0.0000 C   0  0  0  0  0  0  0  0  0  0  0  0
    5.4505   -7.4112    0.0000 O   0  0  0  0  0  0  0  0  0  0  0  0
    5.3399   -8.6487    0.0000 C   0  0  0  0  0  0  0  0  0  0  0  0
    5.7524   -9.3632    0.0000 C   0  0  0  0  0  0  0  0  0  0  0  0
    9.7373   -6.5863    0.0000 O   0  0  0  0  0  0  0  0  0  0  0  0
   11.1662   -9.0613    0.0000 C   0  0  0  0  0  0  0  0  0  0  0  0
    8.3083   -6.5863    0.0000 O   0  0  0  0  0  0  0  0  0  0  0  0
    5.4475   -6.5994    0.0000 C   0  0  0  0  0  0  0  0  0  0  0  0
    6.1617   -6.1865    0.0000 O   0  0  0  0  0  0  0  0  0  0  0  0
    4.7321   -6.1885    0.0000 C   0  0  0  0  0  0  0  0  0  0  0  0
    4.3196   -6.9029    0.0000 O   0  0  0  0  0  0  0  0  0  0  0  0
    4.7304   -5.3635    0.0000 C   0  0  0  0  0  0  0  0  0  0  0  0
    5.4440   -4.9494    0.0000 C   0  0  0  0  0  0  0  0  0  0  0  0
    4.0150   -4.9525    0.0000 O   0  0  0  0  0  0  0  0  0  0  0  0
    3.9071   -6.1885    0.0000 C   0  0  0  0  0  0  0  0  0  0  0  0
  1  2  1  0  0  0  0
  2  3  1  0  0  0  0
  3  4  1  0  0  0  0
  4  5  2  0  0  0  0
  5  6  1  0  0  0  0
  6  1  1  0  0  0  0
  4  7  1  0  0  0  0
  7  8  2  0  0  0  0
  8  9  1  0  0  0  0
  9 10  2  0  0  0  0
 10  5  1  0  0  0  0
  8 11  1  0  0  0  0
 11 12  1  0  0  0  0
 12 13  2  0  0  0  0
 13 14  1  0  0  0  0
 14  9  1  0  0  0  0
  1 15  1  0  0  0  0
  2 16  1  0  0  0  0
  2 17  1  0  0  0  0
 14 18  2  0  0  0  0
 12 19  1  0  0  0  0
 10 20  1  0  0  0  0
 21 22  2  0  0  0  0
 15 21  1  0  0  0  0
 21 23  1  0  0  0  0
 23 24  1  0  0  0  0
 23 25  1  0  0  0  0
 25 26  1  0  0  0  0
 25 27  1  0  0  0  0
 23 28  1  0  0  0  0
M  END
>  <cdx:fragmentId>
5

$$$$
