99266.cdx
  Mrv1902 05222410212D          

 48 51  0  0  0  0            999 V2000
    5.1474   -4.9225    0.0000 C   0  0  0  0  0  0  0  0  0  0  0  0
    5.1474   -5.7475    0.0000 C   0  0  0  0  0  0  0  0  0  0  0  0
    5.8619   -6.1600    0.0000 C   0  0  0  0  0  0  0  0  0  0  0  0
    6.5764   -5.7475    0.0000 C   0  0  0  0  0  0  0  0  0  0  0  0
    6.5764   -4.9225    0.0000 C   0  0  0  0  0  0  0  0  0  0  0  0
    5.8619   -4.5100    0.0000 C   0  0  0  0  0  0  0  0  0  0  0  0
    4.4330   -4.5100    0.0000 O   0  0  0  0  0  0  0  0  0  0  0  0
    4.4330   -6.1600    0.0000 O   0  0  0  0  0  0  0  0  0  0  0  0
    4.4330   -6.9850    0.0000 C   0  0  0  0  0  0  0  0  0  0  0  0
    7.2908   -6.1600    0.0000 C   0  0  0  0  0  0  0  0  0  0  0  0
    8.0053   -5.7475    0.0000 C   0  0  1  0  0  0  0  0  0  0  0  0
    8.0053   -4.9225    0.0000 C   0  0  0  0  0  0  0  0  0  0  0  0
    8.7198   -6.1600    0.0000 C   0  0  0  0  0  0  0  0  0  0  0  0
    8.7198   -4.5100    0.0000 O   0  0  0  0  0  0  0  0  0  0  0  0
    9.4343   -5.7475    0.0000 C   0  0  0  0  0  0  0  0  0  0  0  0
    8.7198   -6.9850    0.0000 C   0  0  0  0  0  0  0  0  0  0  0  0
    9.4343   -7.3975    0.0000 C   0  0  0  0  0  0  0  0  0  0  0  0
   10.1487   -6.9850    0.0000 C   0  0  0  0  0  0  0  0  0  0  0  0
   10.1487   -6.1600    0.0000 C   0  0  0  0  0  0  0  0  0  0  0  0
   10.8632   -5.7475    0.0000 C   0  0  0  0  0  0  0  0  0  0  0  0
   11.5777   -6.1600    0.0000 C   0  0  0  0  0  0  0  0  0  0  0  0
   12.2921   -5.7475    0.0000 C   0  0  0  0  0  0  0  0  0  0  0  0
   13.0066   -6.1600    0.0000 O   0  0  0  0  0  0  0  0  0  0  0  0
    9.4343   -8.2225    0.0000 O   0  0  0  0  0  0  0  0  0  0  0  0
   10.1487   -8.6350    0.0000 C   0  0  0  0  0  0  0  0  0  0  0  0
    8.0053   -7.3975    0.0000 O   0  0  0  0  0  0  0  0  0  0  0  0
    6.3611   -8.8352    0.0000 C   0  0  2  0  0  0  0  0  0  0  0  0
    6.7743   -9.5493    0.0000 C   0  0  2  0  0  0  0  0  0  0  0  0
    7.5993   -9.5485    0.0000 C   0  0  1  0  0  0  0  0  0  0  0  0
    8.0111   -8.8336    0.0000 C   0  0  2  0  0  0  0  0  0  0  0  0
    7.5979   -8.1196    0.0000 C   0  0  1  0  0  0  0  0  0  0  0  0
    6.7729   -8.1203    0.0000 O   0  0  0  0  0  0  0  0  0  0  0  0
    5.5361   -8.8359    0.0000 C   0  0  0  0  0  0  0  0  0  0  0  0
    8.0124  -10.2626    0.0000 O   0  0  0  0  0  0  0  0  0  0  0  0
    6.3624  -10.2641    0.0000 O   0  0  0  0  0  0  0  0  0  0  0  0
    8.8361   -8.8329    0.0000 O   0  0  0  0  0  0  0  0  0  0  0  0
    5.1243   -9.5508    0.0000 O   0  0  0  0  0  0  0  0  0  0  0  0
    4.2993   -9.5515    0.0000 C   0  0  0  0  0  0  0  0  0  0  0  0
    3.8874  -10.2664    0.0000 C   0  0  0  0  0  0  0  0  0  0  0  0
    3.8861   -8.8375    0.0000 O   0  0  0  0  0  0  0  0  0  0  0  0
    3.0624  -10.2672    0.0000 C   0  0  0  0  0  0  0  0  0  0  0  0
    2.6506  -10.9820    0.0000 C   0  0  0  0  0  0  0  0  0  0  0  0
    3.0637  -11.6961    0.0000 C   0  0  0  0  0  0  0  0  0  0  0  0
    3.8887  -11.6953    0.0000 C   0  0  0  0  0  0  0  0  0  0  0  0
    4.3006  -10.9805    0.0000 C   0  0  0  0  0  0  0  0  0  0  0  0
    1.8256  -10.9828    0.0000 O   0  0  0  0  0  0  0  0  0  0  0  0
    1.4137  -11.6976    0.0000 C   0  0  0  0  0  0  0  0  0  0  0  0
    2.6519  -12.4109    0.0000 O   0  0  0  0  0  0  0  0  0  0  0  0
  1  2  2  0  0  0  0
  2  3  1  0  0  0  0
  3  4  2  0  0  0  0
  4  5  1  0  0  0  0
  5  6  2  0  0  0  0
  6  1  1  0  0  0  0
  1  7  1  0  0  0  0
  2  8  1  0  0  0  0
  8  9  1  0  0  0  0
  4 10  1  0  0  0  0
 10 11  1  0  0  0  0
 11 12  1  1  0  0  0
 11 13  1  0  0  0  0
 12 14  1  0  0  0  0
 13 15  2  0  0  0  0
 13 16  1  0  0  0  0
 16 17  2  0  0  0  0
 17 18  1  0  0  0  0
 18 19  2  0  0  0  0
 19 15  1  0  0  0  0
 19 20  1  0  0  0  0
 20 21  2  0  0  0  0
 21 22  1  0  0  0  0
 22 23  1  0  0  0  0
 17 24  1  0  0  0  0
 24 25  1  0  0  0  0
 16 26  1  0  0  0  0
 27 28  1  0  0  0  0
 28 29  1  0  0  0  0
 29 30  1  0  0  0  0
 30 31  1  0  0  0  0
 31 32  1  0  0  0  0
 32 27  1  0  0  0  0
 27 33  1  1  0  0  0
 29 34  1  1  0  0  0
 28 35  1  6  0  0  0
 30 36  1  6  0  0  0
 33 37  1  0  0  0  0
 31 26  1  1  0  0  0
 37 38  1  0  0  0  0
 38 39  1  0  0  0  0
 38 40  2  0  0  0  0
 39 41  2  0  0  0  0
 41 42  1  0  0  0  0
 42 43  2  0  0  0  0
 43 44  1  0  0  0  0
 44 45  2  0  0  0  0
 45 39  1  0  0  0  0
 42 46  1  0  0  0  0
 46 47  1  0  0  0  0
 43 48  1  0  0  0  0
M  END
>  <cdx:fragmentId>
5

$$$$
