99261.cdx
  Mrv1902 05222410232D          

 30 33  0  0  0  0            999 V2000
    6.1649   -7.8237    0.0000 C   0  0  2  0  0  0  0  0  0  0  0  0
    6.1649   -8.6487    0.0000 C   0  0  0  0  0  0  0  0  0  0  0  0
    6.8794   -9.0613    0.0000 O   0  0  0  0  0  0  0  0  0  0  0  0
    7.5939   -8.6487    0.0000 C   0  0  0  0  0  0  0  0  0  0  0  0
    7.5939   -7.8237    0.0000 C   0  0  0  0  0  0  0  0  0  0  0  0
    6.8794   -7.4112    0.0000 C   0  0  0  0  0  0  0  0  0  0  0  0
    8.3083   -9.0613    0.0000 C   0  0  0  0  0  0  0  0  0  0  0  0
    9.0228   -8.6487    0.0000 C   0  0  0  0  0  0  0  0  0  0  0  0
    9.0228   -7.8237    0.0000 C   0  0  0  0  0  0  0  0  0  0  0  0
    8.3083   -7.4112    0.0000 C   0  0  0  0  0  0  0  0  0  0  0  0
    9.7373   -9.0613    0.0000 O   0  0  0  0  0  0  0  0  0  0  0  0
   10.4518   -8.6487    0.0000 C   0  0  0  0  0  0  0  0  0  0  0  0
   10.4518   -7.8237    0.0000 C   0  0  0  0  0  0  0  0  0  0  0  0
    9.7373   -7.4112    0.0000 C   0  0  0  0  0  0  0  0  0  0  0  0
    5.4505   -7.4112    0.0000 O   0  0  0  0  0  0  0  0  0  0  0  0
    5.3399   -8.6487    0.0000 C   0  0  0  0  0  0  0  0  0  0  0  0
    5.7524   -9.3632    0.0000 C   0  0  0  0  0  0  0  0  0  0  0  0
    9.7373   -6.5863    0.0000 O   0  0  0  0  0  0  0  0  0  0  0  0
   11.1662   -9.0613    0.0000 C   0  0  0  0  0  0  0  0  0  0  0  0
    6.1700   -5.3528    0.0000 C   0  0  2  0  0  0  0  0  0  0  0  0
    5.4562   -4.9391    0.0000 C   0  0  2  0  0  0  0  0  0  0  0  0
    4.7411   -5.3505    0.0000 C   0  0  1  0  0  0  0  0  0  0  0  0
    4.7398   -6.1755    0.0000 C   0  0  2  0  0  0  0  0  0  0  0  0
    5.4536   -6.5891    0.0000 C   0  0  1  0  0  0  0  0  0  0  0  0
    6.1687   -6.1778    0.0000 O   0  0  0  0  0  0  0  0  0  0  0  0
    6.8851   -4.9414    0.0000 C   0  0  0  0  0  0  0  0  0  0  0  0
    4.0272   -4.9369    0.0000 O   0  0  0  0  0  0  0  0  0  0  0  0
    5.4574   -4.1142    0.0000 O   0  0  0  0  0  0  0  0  0  0  0  0
    4.0247   -6.5869    0.0000 O   0  0  0  0  0  0  0  0  0  0  0  0
    6.8864   -4.1164    0.0000 O   0  0  0  0  0  0  0  0  0  0  0  0
  1  2  1  0  0  0  0
  2  3  1  0  0  0  0
  3  4  1  0  0  0  0
  4  5  2  0  0  0  0
  5  6  1  0  0  0  0
  6  1  1  0  0  0  0
  4  7  1  0  0  0  0
  7  8  2  0  0  0  0
  8  9  1  0  0  0  0
  9 10  2  0  0  0  0
 10  5  1  0  0  0  0
  8 11  1  0  0  0  0
 11 12  1  0  0  0  0
 12 13  2  0  0  0  0
 13 14  1  0  0  0  0
 14  9  1  0  0  0  0
  1 15  1  1  0  0  0
  2 16  1  0  0  0  0
  2 17  1  0  0  0  0
 14 18  2  0  0  0  0
 12 19  1  0  0  0  0
 20 21  1  0  0  0  0
 21 22  1  0  0  0  0
 22 23  1  0  0  0  0
 23 24  1  0  0  0  0
 24 25  1  0  0  0  0
 25 20  1  0  0  0  0
 20 26  1  1  0  0  0
 22 27  1  1  0  0  0
 21 28  1  6  0  0  0
 23 29  1  6  0  0  0
 26 30  1  0  0  0  0
 24 15  1  1  0  0  0
M  END
>  <cdx:fragmentId>
5

$$$$
