99278.cdx
  Mrv1902 05222410232D          

 67 74  0  0  0  0            999 V2000
    9.4393   -5.6358    0.0000 C   0  0  0  0  0  0  0  0  0  0  0  0
   10.0109   -5.3058    0.0000 C   0  0  0  0  0  0  0  0  0  0  0  0
   10.5825   -5.6358    0.0000 C   0  0  0  0  0  0  0  0  0  0  0  0
   10.5825   -6.2958    0.0000 C   0  0  0  0  0  0  0  0  0  0  0  0
   10.0109   -6.6258    0.0000 C   0  0  2  0  0  0  0  0  0  0  0  0
   10.0109   -7.2858    0.0000 C   0  0  0  0  0  0  0  0  0  0  0  0
    9.4393   -7.6158    0.0000 C   0  0  0  0  0  0  0  0  0  0  0  0
    8.8678   -7.2858    0.0000 C   0  0  1  0  0  0  0  0  0  0  0  0
    8.2962   -7.6158    0.0000 C   0  0  2  0  0  0  0  0  0  0  0  0
    8.2962   -8.2758    0.0000 C   0  0  0  0  0  0  0  0  0  0  0  0
    7.7246   -8.6058    0.0000 C   0  0  0  0  0  0  0  0  0  0  0  0
    7.1530   -8.2758    0.0000 C   0  0  1  0  0  0  0  0  0  0  0  0
    6.5814   -8.6058    0.0000 C   0  0  2  0  0  0  0  0  0  0  0  0
    6.0099   -8.2758    0.0000 C   0  0  2  0  0  0  0  0  0  0  0  0
    6.0099   -7.6158    0.0000 C   0  0  0  0  0  0  0  0  0  0  0  0
    6.5814   -7.2858    0.0000 C   0  0  0  0  0  0  0  0  0  0  0  0
    7.1530   -7.6158    0.0000 C   0  0  2  0  0  0  0  0  0  0  0  0
    7.7246   -7.2858    0.0000 C   0  0  0  0  0  0  0  0  0  0  0  0
    7.7246   -6.6258    0.0000 C   0  0  0  0  0  0  0  0  0  0  0  0
    8.2962   -6.2958    0.0000 C   0  0  0  0  0  0  0  0  0  0  0  0
    8.8678   -6.6258    0.0000 C   0  0  0  0  0  0  0  0  0  0  0  0
    9.4393   -6.2958    0.0000 C   0  0  2  0  0  0  0  0  0  0  0  0
   10.5825   -6.9558    0.0000 C   0  0  0  0  0  0  0  0  0  0  0  0
   10.5825   -7.6158    0.0000 O   0  0  0  0  0  0  0  0  0  0  0  0
   11.1541   -6.6258    0.0000 O   0  0  0  0  0  0  0  0  0  0  0  0
    7.1530   -6.9558    0.0000 C   0  0  0  0  0  0  0  0  0  0  0  0
    6.2514   -9.1774    0.0000 C   0  0  0  0  0  0  0  0  0  0  0  0
    9.6809   -4.7342    0.0000 C   0  0  0  0  0  0  0  0  0  0  0  0
   10.3409   -4.7342    0.0000 C   0  0  0  0  0  0  0  0  0  0  0  0
    6.9114   -9.1774    0.0000 C   0  0  0  0  0  0  0  0  0  0  0  0
    6.5814   -9.7490    0.0000 O   0  0  0  0  0  0  0  0  0  0  0  0
    5.4383   -8.6058    0.0000 O   0  0  0  0  0  0  0  0  0  0  0  0
    7.1530   -8.9358    0.0000 H   0  0  0  0  0  0  0  0  0  0  0  0
    9.4393   -6.9558    0.0000 H   0  0  0  0  0  0  0  0  0  0  0  0
    8.6262   -8.1874    0.0000 C   0  0  0  0  0  0  0  0  0  0  0  0
    9.1978   -7.8574    0.0000 C   0  0  0  0  0  0  0  0  0  0  0  0
   12.2964   -7.9347    0.0000 C   0  0  2  0  0  0  0  0  0  0  0  0
   12.8674   -7.6037    0.0000 C   0  0  2  0  0  0  0  0  0  0  0  0
   12.8662   -6.9437    0.0000 C   0  0  1  0  0  0  0  0  0  0  0  0
   12.2940   -6.6147    0.0000 C   0  0  2  0  0  0  0  0  0  0  0  0
   11.7230   -6.9458    0.0000 C   0  0  1  0  0  0  0  0  0  0  0  0
   11.7242   -7.6058    0.0000 O   0  0  0  0  0  0  0  0  0  0  0  0
   12.2976   -8.5947    0.0000 C   0  0  0  0  0  0  0  0  0  0  0  0
   13.4372   -6.6126    0.0000 O   0  0  0  0  0  0  0  0  0  0  0  0
   13.4396   -7.9326    0.0000 O   0  0  0  0  0  0  0  0  0  0  0  0
   12.2928   -5.9547    0.0000 O   0  0  0  0  0  0  0  0  0  0  0  0
   12.8698   -8.9237    0.0000 O   0  0  0  0  0  0  0  0  0  0  0  0
    3.7179   -7.6306    0.0000 C   0  0  2  0  0  0  0  0  0  0  0  0
    3.7179   -8.2906    0.0000 C   0  0  1  0  0  0  0  0  0  0  0  0
    4.2894   -8.6206    0.0000 C   0  0  2  0  0  0  0  0  0  0  0  0
    4.8610   -8.2906    0.0000 C   0  0  1  0  0  0  0  0  0  0  0  0
    4.8610   -7.6306    0.0000 O   0  0  0  0  0  0  0  0  0  0  0  0
    4.2894   -7.3006    0.0000 C   0  0  0  0  0  0  0  0  0  0  0  0
    3.1463   -7.3006    0.0000 O   0  0  0  0  0  0  0  0  0  0  0  0
    3.1463   -8.6206    0.0000 O   0  0  0  0  0  0  0  0  0  0  0  0
    4.2894   -9.2806    0.0000 O   0  0  0  0  0  0  0  0  0  0  0  0
    1.4998   -8.0296    0.0000 C   0  0  2  0  0  0  0  0  0  0  0  0
    1.1674   -8.5997    0.0000 C   0  0  2  0  0  0  0  0  0  0  0  0
    1.4950   -9.1727    0.0000 C   0  0  1  0  0  0  0  0  0  0  0  0
    2.1550   -9.1755    0.0000 C   0  0  2  0  0  0  0  0  0  0  0  0
    2.4874   -8.6053    0.0000 C   0  0  1  0  0  0  0  0  0  0  0  0
    2.1598   -8.0324    0.0000 O   0  0  0  0  0  0  0  0  0  0  0  0
    1.1723   -7.4566    0.0000 C   0  0  0  0  0  0  0  0  0  0  0  0
    1.1626   -9.7429    0.0000 O   0  0  0  0  0  0  0  0  0  0  0  0
    0.5074   -8.5969    0.0000 O   0  0  0  0  0  0  0  0  0  0  0  0
    2.4825   -9.7485    0.0000 O   0  0  0  0  0  0  0  0  0  0  0  0
    0.5123   -7.4538    0.0000 O   0  0  0  0  0  0  0  0  0  0  0  0
  1  2  1  0  0  0  0
  2  3  1  0  0  0  0
  3  4  1  0  0  0  0
  4  5  1  0  0  0  0
  5  6  1  0  0  0  0
  6  7  1  0  0  0  0
  7  8  1  0  0  0  0
  8  9  1  0  0  0  0
  9 10  1  0  0  0  0
 10 11  1  0  0  0  0
 11 12  1  0  0  0  0
 12 13  1  0  0  0  0
 13 14  1  0  0  0  0
 14 15  1  0  0  0  0
 15 16  1  0  0  0  0
 16 17  1  0  0  0  0
 12 17  1  0  0  0  0
 17 18  1  0  0  0  0
  9 18  1  0  0  0  0
 18 19  1  0  0  0  0
 19 20  1  0  0  0  0
 20 21  2  0  0  0  0
  8 21  1  0  0  0  0
 21 22  1  0  0  0  0
  5 22  1  0  0  0  0
  1 22  1  0  0  0  0
 23 24  2  0  0  0  0
 23 25  1  0  0  0  0
  5 23  1  1  0  0  0
 17 26  1  1  0  0  0
 13 27  1  1  0  0  0
  2 28  1  0  0  0  0
  2 29  1  0  0  0  0
 30 31  1  0  0  0  0
 13 30  1  6  0  0  0
 14 32  1  1  0  0  0
 12 33  1  6  0  0  0
 22 34  1  1  0  0  0
  9 35  1  1  0  0  0
  8 36  1  6  0  0  0
 37 38  1  0  0  0  0
 38 39  1  0  0  0  0
 39 40  1  0  0  0  0
 40 41  1  0  0  0  0
 41 42  1  0  0  0  0
 42 37  1  0  0  0  0
 37 43  1  1  0  0  0
 39 44  1  1  0  0  0
 38 45  1  6  0  0  0
 40 46  1  6  0  0  0
 43 47  1  0  0  0  0
 41 25  1  1  0  0  0
 48 49  1  0  0  0  0
 49 50  1  0  0  0  0
 50 51  1  0  0  0  0
 51 52  1  0  0  0  0
 52 53  1  0  0  0  0
 53 48  1  0  0  0  0
 48 54  1  1  0  0  0
 49 55  1  1  0  0  0
 50 56  1  6  0  0  0
 57 58  1  0  0  0  0
 58 59  1  0  0  0  0
 59 60  1  0  0  0  0
 60 61  1  0  0  0  0
 61 62  1  0  0  0  0
 62 57  1  0  0  0  0
 57 63  1  1  0  0  0
 59 64  1  1  0  0  0
 58 65  1  6  0  0  0
 60 66  1  6  0  0  0
 63 67  1  0  0  0  0
 61 55  1  1  0  0  0
 51 32  1  1  0  0  0
M  END
>  <cdx:fragmentId>
5

$$$$
