99270.cdx
  Mrv1902 05222410212D          

 45 48  0  0  0  0            999 V2000
   14.9678   -7.5454    0.0000 H   0  0  0  0  0  0  0  0  0  0  0  0
   16.7184   -9.0499    0.0000 H   0  0  0  0  0  0  0  0  0  0  0  0
   16.6426   -9.7148    0.0000 H   0  0  0  0  0  0  0  0  0  0  0  0
   14.2355  -11.8362    0.0000 O   0  0  0  0  0  0  0  0  0  0  0  0
   14.8442  -12.3431    0.0000 O   0  0  0  0  0  0  0  0  0  0  0  0
   17.1623  -11.8773    0.0000 O   0  0  0  0  0  0  0  0  0  0  0  0
   16.3465  -12.0003    0.0000 C   0  0  0  0  0  0  0  0  0  0  0  0
   12.2882  -10.6119    0.0000 C   0  0  0  0  0  0  0  0  0  0  0  0
   16.2251   -7.2202    0.0000 C   0  0  0  0  0  0  0  0  0  0  0  0
   16.8508   -7.7579    0.0000 C   0  0  0  0  0  0  0  0  0  0  0  0
   13.0948   -9.3950    0.0000 C   0  0  0  0  0  0  0  0  0  0  0  0
   14.8442   -8.8808    0.0000 O   0  0  0  0  0  0  0  0  0  0  0  0
   15.0278   -9.6851    0.0000 C   0  0  0  0  0  0  0  0  0  0  0  0
   13.9198   -9.3950    0.0000 C   0  0  2  0  0  0  0  0  0  0  0  0
   14.2916   -8.5446    0.0000 C   0  0  0  0  0  0  0  0  0  0  0  0
   15.1964   -8.3381    0.0000 C   0  0  1  0  0  0  0  0  0  0  0  0
   16.0723   -8.0309    0.0000 C   0  0  0  0  0  0  0  0  0  0  0  0
   15.9004   -8.9430    0.0000 C   0  0  1  0  0  0  0  0  0  0  0  0
   15.8321   -9.8686    0.0000 C   0  0  2  0  0  0  0  0  0  0  0  0
   16.1900  -10.6119    0.0000 C   0  0  0  0  0  0  0  0  0  0  0  0
   15.8321  -11.3552    0.0000 C   0  0  0  0  0  0  0  0  0  0  0  0
   15.0278  -11.5388    0.0000 C   0  0  2  0  0  0  0  0  0  0  0  0
   14.3828  -11.0244    0.0000 C   0  0  1  0  0  0  0  0  0  0  0  0
   13.5981  -11.2794    0.0000 C   0  0  2  0  0  0  0  0  0  0  0  0
   13.1132  -10.6119    0.0000 C   0  0  0  0  0  0  0  0  0  0  0  0
   13.5981   -9.9445    0.0000 C   0  0  0  0  0  0  0  0  0  0  0  0
   14.3828  -10.1994    0.0000 C   0  0  0  0  0  0  0  0  0  0  0  0
   13.3432  -12.0640    0.0000 O   0  0  0  0  0  0  0  0  0  0  0  0
   12.2813  -13.0202    0.0000 O   0  0  0  0  0  0  0  0  0  0  0  0
    6.5482   -9.8562    0.0000 C   0  0  0  0  0  0  0  0  0  0  0  0
    7.1002  -10.4693    0.0000 C   0  0  0  0  0  0  0  0  0  0  0  0
    7.9072  -10.2977    0.0000 C   0  0  0  0  0  0  0  0  0  0  0  0
    8.4592  -10.9108    0.0000 C   0  0  0  0  0  0  0  0  0  0  0  0
    9.2662  -10.7393    0.0000 C   0  0  0  0  0  0  0  0  0  0  0  0
    9.8182  -11.3524    0.0000 C   0  0  0  0  0  0  0  0  0  0  0  0
   10.6252  -11.1809    0.0000 C   0  0  0  0  0  0  0  0  0  0  0  0
   11.1772  -11.7940    0.0000 C   0  0  0  0  0  0  0  0  0  0  0  0
   11.9842  -11.6224    0.0000 C   0  0  0  0  0  0  0  0  0  0  0  0
   12.5362  -12.2355    0.0000 C   0  0  0  0  0  0  0  0  0  0  0  0
    5.7412  -10.0277    0.0000 C   0  0  0  0  0  0  0  0  0  0  0  0
    5.1892   -9.4146    0.0000 C   0  0  0  0  0  0  0  0  0  0  0  0
    4.3822   -9.5861    0.0000 C   0  0  0  0  0  0  0  0  0  0  0  0
    3.8302   -8.9730    0.0000 C   0  0  0  0  0  0  0  0  0  0  0  0
    3.0232   -9.1446    0.0000 C   0  0  0  0  0  0  0  0  0  0  0  0
    2.4712   -8.5315    0.0000 C   0  0  0  0  0  0  0  0  0  0  0  0
 16  1  1  6  0  0  0
 18  2  1  6  0  0  0
 19  3  1  1  0  0  0
 24 28  1  1  0  0  0
 23  4  1  1  0  0  0
 22  5  1  1  0  0  0
 21  7  1  0  0  0  0
  7  6  1  0  0  0  0
 25  8  1  0  0  0  0
 17  9  1  0  0  0  0
 17 10  1  0  0  0  0
 14 11  1  6  0  0  0
 13 12  2  0  0  0  0
 27 23  1  0  0  0  0
 18 16  1  0  0  0  0
 19 13  1  0  0  0  0
 27 13  1  0  0  0  0
 27 14  1  0  0  0  0
 15 14  1  0  0  0  0
 16 15  1  0  0  0  0
 17 16  1  0  0  0  0
 18 17  1  0  0  0  0
 19 18  1  0  0  0  0
 20 19  1  0  0  0  0
 21 20  2  0  0  0  0
 22 21  1  0  0  0  0
 23 22  1  0  0  0  0
 24 23  1  0  0  0  0
 25 24  1  0  0  0  0
 26 25  2  0  0  0  0
 27 26  1  0  0  0  0
 39 28  1  0  0  0  0
 39 29  2  0  0  0  0
 31 30  2  0  0  0  0
 32 31  1  0  0  0  0
 33 32  1  0  0  0  0
 34 33  1  0  0  0  0
 35 34  1  0  0  0  0
 36 35  1  0  0  0  0
 37 36  1  0  0  0  0
 38 37  1  0  0  0  0
 39 38  1  0  0  0  0
 30 40  1  0  0  0  0
 40 41  1  0  0  0  0
 41 42  1  0  0  0  0
 42 43  1  0  0  0  0
 43 44  1  0  0  0  0
 44 45  1  0  0  0  0
M  END
>  <cdx:groupId>
947

>  <cdx:fragmentId>
854

$$$$
