99274.cdx
  Mrv1902 05222410222D          

 67 73  0  0  0  0            999 V2000
    5.7938   -3.4009    0.0000 C   0  0  2  0  0  0  0  0  0  0  0  0
    6.1539   -4.1432    0.0000 C   0  0  1  0  0  0  0  0  0  0  0  0
    5.7981   -4.8875    0.0000 C   0  0  1  0  0  0  0  0  0  0  0  0
    4.9943   -5.0735    0.0000 C   0  0  1  0  0  0  0  0  0  0  0  0
    4.3478   -4.5610    0.0000 C   0  0  1  0  0  0  0  0  0  0  0  0
    4.3454   -3.7360    0.0000 C   0  0  2  0  0  0  0  0  0  0  0  0
    4.9889   -3.2197    0.0000 C   0  0  2  0  0  0  0  0  0  0  0  0
    3.6346   -4.9755    0.0000 C   0  0  2  0  0  0  0  0  0  0  0  0
    2.9189   -4.5651    0.0000 C   0  0  1  0  0  0  0  0  0  0  0  0
    2.9165   -3.7401    0.0000 C   0  0  0  0  0  0  0  0  0  0  0  0
    3.6297   -3.3255    0.0000 C   0  0  2  0  0  0  0  0  0  0  0  0
    4.9126   -2.3982    0.0000 C   0  0  0  0  0  0  0  0  0  0  0  0
    5.6702   -2.0718    0.0000 C   0  0  1  0  0  0  0  0  0  0  0  0
    6.2148   -2.6915    0.0000 C   0  0  2  0  0  0  0  0  0  0  0  0
    3.6273   -2.5006    0.0000 O   0  0  0  0  0  0  0  0  0  0  0  0
    2.9162   -2.0824    0.0000 C   0  0  0  0  0  0  0  0  0  0  0  0
    3.6370   -5.8005    0.0000 C   0  0  0  0  0  0  0  0  0  0  0  0
    2.9237   -6.2151    0.0000 O   0  0  0  0  0  0  0  0  0  0  0  0
    2.9261   -7.0401    0.0000 C   0  0  0  0  0  0  0  0  0  0  0  0
    4.3450   -3.0800    0.0000 C   0  0  0  0  0  0  0  0  0  0  0  0
    3.6300   -4.0975    0.0000 N   0  0  0  0  0  0  0  0  0  0  0  0
    2.9150   -5.2800    0.0000 C   0  0  0  0  0  0  0  0  0  0  0  0
    6.9525   -3.9360    0.0000 C   0  0  2  0  0  0  0  0  0  0  0  0
    6.9300   -2.2275    0.0000 C   0  0  2  0  0  0  0  0  0  0  0  0
    6.3674   -4.9401    0.0000 O   0  0  0  0  0  0  0  0  0  0  0  0
    7.5350   -2.6400    0.0000 O   0  0  0  0  0  0  0  0  0  0  0  0
    4.3412   -5.3859    0.0000 H   0  0  0  0  0  0  0  0  0  0  0  0
    4.4056   -2.6363    0.0000 O   0  0  0  0  0  0  0  0  0  0  0  0
    6.6187   -3.4075    0.0000 H   0  0  0  0  0  0  0  0  0  0  0  0
    5.6702   -1.2468    0.0000 O   0  0  0  0  0  0  0  0  0  0  0  0
    5.7981   -5.7125    0.0000 H   0  0  0  0  0  0  0  0  0  0  0  0
    2.4475   -4.0975    0.0000 C   0  0  0  0  0  0  0  0  0  0  0  0
    4.9943   -5.8985    0.0000 O   0  0  0  0  0  0  0  0  0  0  0  0
    4.2799   -6.3110    0.0000 C   0  0  0  0  0  0  0  0  0  0  0  0
    8.2495   -3.0525    0.0000 C   0  0  0  0  0  0  0  0  0  0  0  0
    8.9639   -2.6400    0.0000 C   0  0  0  0  0  0  0  0  0  0  0  0
    8.2495   -3.8775    0.0000 O   0  0  0  0  0  0  0  0  0  0  0  0
    9.6784   -3.0525    0.0000 C   0  0  0  0  0  0  0  0  0  0  0  0
   10.3929   -2.6400    0.0000 C   0  0  0  0  0  0  0  0  0  0  0  0
   10.3929   -1.8150    0.0000 C   0  0  0  0  0  0  0  0  0  0  0  0
    9.6784   -1.4025    0.0000 C   0  0  0  0  0  0  0  0  0  0  0  0
    8.9639   -1.8150    0.0000 C   0  0  0  0  0  0  0  0  0  0  0  0
    7.7493   -4.1496    0.0000 O   0  0  0  0  0  0  0  0  0  0  0  0
    7.0868   -5.3325    0.0000 C   0  0  0  0  0  0  0  0  0  0  0  0
    7.1037   -6.1573    0.0000 C   0  0  0  0  0  0  0  0  0  0  0  0
    7.7926   -4.9054    0.0000 O   0  0  0  0  0  0  0  0  0  0  0  0
    7.5445   -1.6770    0.0000 O   0  0  0  0  0  0  0  0  0  0  0  0
    7.5445   -0.8520    0.0000 C   0  0  0  0  0  0  0  0  0  0  0  0
    7.8264   -6.5551    0.0000 C   0  0  0  0  0  0  0  0  0  0  0  0
    7.8433   -7.3799    0.0000 C   0  0  0  0  0  0  0  0  0  0  0  0
    8.5661   -7.7777    0.0000 C   0  0  0  0  0  0  0  0  0  0  0  0
    8.5830   -8.6025    0.0000 C   0  0  0  0  0  0  0  0  0  0  0  0
    9.3057   -9.0003    0.0000 C   0  0  0  0  0  0  0  0  0  0  0  0
    9.3226   -9.8251    0.0000 C   0  0  0  0  0  0  0  0  0  0  0  0
   10.0454  -10.2229    0.0000 C   0  0  0  0  0  0  0  0  0  0  0  0
   10.0623  -11.0477    0.0000 C   0  0  0  0  0  0  0  0  0  0  0  0
   10.7850  -11.4455    0.0000 C   0  0  0  0  0  0  0  0  0  0  0  0
   10.8019  -12.2704    0.0000 C   0  0  0  0  0  0  0  0  0  0  0  0
    2.2056   -4.9797    0.0000 O   0  0  0  0  0  0  0  0  0  0  0  0
   11.5247  -12.6681    0.0000 C   0  0  0  0  0  0  0  0  0  0  0  0
   11.5416  -13.4930    0.0000 C   0  0  0  0  0  0  0  0  0  0  0  0
   12.2643  -13.8908    0.0000 C   0  0  0  0  0  0  0  0  0  0  0  0
   12.2812  -14.7156    0.0000 C   0  0  0  0  0  0  0  0  0  0  0  0
   13.0040  -15.1134    0.0000 C   0  0  0  0  0  0  0  0  0  0  0  0
   13.0209  -15.9382    0.0000 C   0  0  0  0  0  0  0  0  0  0  0  0
   13.7436  -16.3360    0.0000 C   0  0  0  0  0  0  0  0  0  0  0  0
   13.7605  -17.1608    0.0000 C   0  0  0  0  0  0  0  0  0  0  0  0
  1  2  1  0  0  0  0
  2  3  1  0  0  0  0
  3  4  1  0  0  0  0
  4  5  1  0  0  0  0
  5  6  1  0  0  0  0
  6  7  1  0  0  0  0
  7  1  1  0  0  0  0
  5  8  1  0  0  0  0
  8  9  1  0  0  0  0
  9 10  1  0  0  0  0
 10 11  1  0  0  0  0
  6 11  1  1  0  0  0
  7 12  1  0  0  0  0
 12 13  1  0  0  0  0
 13 14  1  0  0  0  0
 14  1  1  0  0  0  0
 11 15  1  6  0  0  0
 15 16  1  0  0  0  0
  8 17  1  1  0  0  0
 17 18  1  0  0  0  0
 18 19  1  0  0  0  0
  6 20  1  0  0  0  0
  3 20  1  0  0  0  0
 20 21  1  0  0  0  0
 21 22  1  0  0  0  0
  8 22  1  0  0  0  0
  2 23  1  0  0  0  0
 13 24  1  0  0  0  0
 24 23  1  0  0  0  0
  2 25  1  1  0  0  0
 14 26  1  6  0  0  0
  5 27  1  1  0  0  0
  7 28  1  1  0  0  0
  1 29  1  1  0  0  0
 13 30  1  1  0  0  0
  3 31  1  6  0  0  0
 21 32  1  0  0  0  0
  4 33  1  6  0  0  0
 33 34  1  0  0  0  0
 26 35  1  0  0  0  0
 35 36  1  0  0  0  0
 35 37  2  0  0  0  0
 36 38  2  0  0  0  0
 38 39  1  0  0  0  0
 39 40  2  0  0  0  0
 40 41  1  0  0  0  0
 41 42  2  0  0  0  0
 42 36  1  0  0  0  0
 23 43  1  6  0  0  0
 44 45  1  0  0  0  0
 44 46  2  0  0  0  0
 25 44  1  0  0  0  0
 24 47  1  1  0  0  0
 47 48  1  0  0  0  0
 45 49  1  0  0  0  0
 49 50  1  0  0  0  0
 50 51  1  0  0  0  0
 51 52  1  0  0  0  0
 52 53  1  0  0  0  0
 53 54  1  0  0  0  0
 54 55  1  0  0  0  0
 55 56  1  0  0  0  0
 56 57  1  0  0  0  0
 57 58  1  0  0  0  0
  9 59  1  6  0  0  0
 58 60  1  0  0  0  0
 60 61  1  0  0  0  0
 61 62  1  0  0  0  0
 62 63  1  0  0  0  0
 63 64  1  0  0  0  0
 64 65  1  0  0  0  0
 65 66  1  0  0  0  0
 66 67  1  0  0  0  0
M  END
>  <cdx:fragmentId>
491

$$$$
