99277.cdx
  Mrv1902 05222410222D          

 26 29  0  0  0  0            999 V2000
    5.0149   -7.5218    0.0000 C   0  0  0  0  0  0  0  0  0  0  0  0
    5.0157   -6.6968    0.0000 C   0  0  0  0  0  0  0  0  0  0  0  0
    5.7303   -6.2845    0.0000 O   0  0  0  0  0  0  0  0  0  0  0  0
    6.4449   -6.6968    0.0000 C   0  0  0  0  0  0  0  0  0  0  0  0
    6.4438   -7.5218    0.0000 C   0  0  0  0  0  0  0  0  0  0  0  0
    7.1583   -7.9343    0.0000 C   0  0  0  0  0  0  0  0  0  0  0  0
    7.1583   -8.7593    0.0000 C   0  0  0  0  0  0  0  0  0  0  0  0
    6.4438   -9.1718    0.0000 C   0  0  0  0  0  0  0  0  0  0  0  0
    5.7293   -8.7593    0.0000 C   0  0  0  0  0  0  0  0  0  0  0  0
    5.0149   -9.1718    0.0000 C   0  0  0  0  0  0  0  0  0  0  0  0
    4.3004   -8.7593    0.0000 C   0  0  0  0  0  0  0  0  0  0  0  0
    4.3004   -7.9343    0.0000 C   0  0  0  0  0  0  0  0  0  0  0  0
    5.7293   -7.9343    0.0000 C   0  0  0  0  0  0  0  0  0  0  0  0
    4.3012   -6.2843    0.0000 O   0  0  0  0  0  0  0  0  0  0  0  0
    7.8728   -7.5218    0.0000 O   0  0  0  0  0  0  0  0  0  0  0  0
    9.3235   -9.1621    0.0000 C   0  0  2  0  0  0  0  0  0  0  0  0
   10.0365   -8.7469    0.0000 C   0  0  2  0  0  0  0  0  0  0  0  0
   10.0334   -7.9220    0.0000 C   0  0  1  0  0  0  0  0  0  0  0  0
    9.3175   -7.5121    0.0000 C   0  0  2  0  0  0  0  0  0  0  0  0
    8.6045   -7.9272    0.0000 C   0  0  1  0  0  0  0  0  0  0  0  0
    8.6075   -8.7522    0.0000 O   0  0  0  0  0  0  0  0  0  0  0  0
    9.3266   -9.9871    0.0000 C   0  0  0  0  0  0  0  0  0  0  0  0
   10.7464   -7.5068    0.0000 O   0  0  0  0  0  0  0  0  0  0  0  0
   10.7525   -9.1568    0.0000 O   0  0  0  0  0  0  0  0  0  0  0  0
    9.3144   -6.6871    0.0000 O   0  0  0  0  0  0  0  0  0  0  0  0
   10.0425  -10.3969    0.0000 O   0  0  0  0  0  0  0  0  0  0  0  0
  1  2  1  0  0  0  0
  2  3  1  0  0  0  0
  3  4  1  0  0  0  0
  4  5  1  0  0  0  0
  5  6  2  0  0  0  0
  6  7  1  0  0  0  0
  7  8  2  0  0  0  0
  8  9  1  0  0  0  0
  9 10  1  0  0  0  0
 10 11  2  0  0  0  0
 11 12  1  0  0  0  0
  1 12  2  0  0  0  0
  1 13  1  0  0  0  0
 13  9  2  0  0  0  0
  5 13  1  0  0  0  0
  2 14  2  0  0  0  0
  6 15  1  0  0  0  0
 16 17  1  0  0  0  0
 17 18  1  0  0  0  0
 18 19  1  0  0  0  0
 19 20  1  0  0  0  0
 20 21  1  0  0  0  0
 21 16  1  0  0  0  0
 16 22  1  1  0  0  0
 18 23  1  1  0  0  0
 17 24  1  6  0  0  0
 19 25  1  6  0  0  0
 22 26  1  0  0  0  0
 20 15  1  1  0  0  0
M  END
>  <cdx:fragmentId>
5

$$$$
