99271.cdx
  Mrv1902 05222410202D          

 43 46  0  0  0  0            999 V2000
    1.4183  -10.5454    0.0000 C   0  0  0  0  0  0  0  0  0  0  0  0
    5.1982  -10.4724    0.0000 C   0  0  0  0  0  0  0  0  0  0  0  0
    4.9433  -11.2570    0.0000 C   0  0  0  0  0  0  0  0  0  0  0  0
   10.3478   -6.6654    0.0000 H   0  0  0  0  0  0  0  0  0  0  0  0
   12.0984   -8.1699    0.0000 H   0  0  0  0  0  0  0  0  0  0  0  0
   12.0226   -8.8348    0.0000 H   0  0  0  0  0  0  0  0  0  0  0  0
    9.6155  -10.9562    0.0000 O   0  0  0  0  0  0  0  0  0  0  0  0
   10.2242  -11.4631    0.0000 O   0  0  0  0  0  0  0  0  0  0  0  0
   12.5423  -10.9973    0.0000 O   0  0  0  0  0  0  0  0  0  0  0  0
   11.7265  -11.1203    0.0000 C   0  0  0  0  0  0  0  0  0  0  0  0
    7.6682   -9.7319    0.0000 C   0  0  0  0  0  0  0  0  0  0  0  0
   11.6051   -6.3402    0.0000 C   0  0  0  0  0  0  0  0  0  0  0  0
   12.2308   -6.8779    0.0000 C   0  0  0  0  0  0  0  0  0  0  0  0
    8.4748   -8.5150    0.0000 C   0  0  0  0  0  0  0  0  0  0  0  0
   10.2242   -8.0008    0.0000 O   0  0  0  0  0  0  0  0  0  0  0  0
   10.4078   -8.8051    0.0000 C   0  0  0  0  0  0  0  0  0  0  0  0
    9.2998   -8.5150    0.0000 C   0  0  2  0  0  0  0  0  0  0  0  0
    9.6716   -7.6646    0.0000 C   0  0  0  0  0  0  0  0  0  0  0  0
   10.5764   -7.4581    0.0000 C   0  0  1  0  0  0  0  0  0  0  0  0
   11.4523   -7.1509    0.0000 C   0  0  0  0  0  0  0  0  0  0  0  0
   11.2804   -8.0630    0.0000 C   0  0  1  0  0  0  0  0  0  0  0  0
   11.2121   -8.9886    0.0000 C   0  0  2  0  0  0  0  0  0  0  0  0
   11.5700   -9.7319    0.0000 C   0  0  0  0  0  0  0  0  0  0  0  0
   11.2121  -10.4752    0.0000 C   0  0  0  0  0  0  0  0  0  0  0  0
   10.4078  -10.6588    0.0000 C   0  0  2  0  0  0  0  0  0  0  0  0
    9.7628  -10.1444    0.0000 C   0  0  1  0  0  0  0  0  0  0  0  0
    8.9781  -10.3994    0.0000 C   0  0  2  0  0  0  0  0  0  0  0  0
    8.4932   -9.7319    0.0000 C   0  0  0  0  0  0  0  0  0  0  0  0
    8.9781   -9.0645    0.0000 C   0  0  0  0  0  0  0  0  0  0  0  0
    9.7628   -9.3194    0.0000 C   0  0  0  0  0  0  0  0  0  0  0  0
    8.7232  -11.1840    0.0000 O   0  0  0  0  0  0  0  0  0  0  0  0
    7.6613  -12.1402    0.0000 O   0  0  0  0  0  0  0  0  0  0  0  0
    2.2253  -10.3739    0.0000 C   0  0  0  0  0  0  0  0  0  0  0  0
    2.7773  -10.9870    0.0000 C   0  0  0  0  0  0  0  0  0  0  0  0
    6.0052  -10.3009    0.0000 C   0  0  0  0  0  0  0  0  0  0  0  0
    6.5572  -10.9140    0.0000 C   0  0  0  0  0  0  0  0  0  0  0  0
    7.3642  -10.7424    0.0000 C   0  0  0  0  0  0  0  0  0  0  0  0
    7.9162  -11.3555    0.0000 C   0  0  0  0  0  0  0  0  0  0  0  0
   13.0566  -11.6423    0.0000 C   0  0  0  0  0  0  0  0  0  0  0  0
   13.8724  -11.5193    0.0000 C   0  0  0  0  0  0  0  0  0  0  0  0
   12.7552  -12.4103    0.0000 O   0  0  0  0  0  0  0  0  0  0  0  0
    3.5843  -10.8155    0.0000 C   0  0  0  0  0  0  0  0  0  0  0  0
    4.1363  -11.4285    0.0000 C   0  0  0  0  0  0  0  0  0  0  0  0
 19  4  1  6  0  0  0
 21  5  1  6  0  0  0
 22  6  1  1  0  0  0
 27 31  1  1  0  0  0
 26  7  1  1  0  0  0
 25  8  1  1  0  0  0
 24 10  1  0  0  0  0
 10  9  1  0  0  0  0
 28 11  1  0  0  0  0
 20 12  1  0  0  0  0
 20 13  1  0  0  0  0
 17 14  1  6  0  0  0
 16 15  2  0  0  0  0
 30 26  1  0  0  0  0
 21 19  1  0  0  0  0
 22 16  1  0  0  0  0
 30 16  1  0  0  0  0
 30 17  1  0  0  0  0
 18 17  1  0  0  0  0
 19 18  1  0  0  0  0
 20 19  1  0  0  0  0
 21 20  1  0  0  0  0
 22 21  1  0  0  0  0
 23 22  1  0  0  0  0
 24 23  2  0  0  0  0
 25 24  1  0  0  0  0
 26 25  1  0  0  0  0
 27 26  1  0  0  0  0
 28 27  1  0  0  0  0
 29 28  2  0  0  0  0
 30 29  1  0  0  0  0
 38 31  1  0  0  0  0
 38 32  2  0  0  0  0
 33  1  1  0  0  0  0
 34 33  1  0  0  0  0
 35  2  2  0  0  0  0
 36 35  1  0  0  0  0
 37 36  2  0  0  0  0
 38 37  1  0  0  0  0
 42 34  1  0  0  0  0
 43 42  1  0  0  0  0
  2  3  1  0  0  0  0
  3 43  2  0  0  0  0
  9 39  1  0  0  0  0
 39 40  1  0  0  0  0
 39 41  2  0  0  0  0
M  END
>  <cdx:groupId>
947

>  <cdx:fragmentId>
854

$$$$
