99287.cdx
  Mrv1902 05222410232D          

 36 40  0  0  0  0            999 V2000
    3.1262   -8.3325    0.0000 C   0  0  0  0  0  0  0  0  0  0  0  0
    3.1262   -9.1575    0.0000 C   0  0  1  0  0  0  0  0  0  0  0  0
    3.8406   -9.5700    0.0000 C   0  0  1  0  0  0  0  0  0  0  0  0
    4.5551   -9.1575    0.0000 C   0  0  0  0  0  0  0  0  0  0  0  0
    4.5551   -8.3325    0.0000 C   0  0  2  0  0  0  0  0  0  0  0  0
    3.8406   -7.9200    0.0000 C   0  0  0  0  0  0  0  0  0  0  0  0
    5.2696   -9.5700    0.0000 C   0  0  0  0  0  0  0  0  0  0  0  0
    5.9841   -9.1575    0.0000 C   0  0  0  0  0  0  0  0  0  0  0  0
    5.9841   -8.3325    0.0000 C   0  0  2  0  0  0  0  0  0  0  0  0
    5.2696   -7.9200    0.0000 C   0  0  0  0  0  0  0  0  0  0  0  0
    6.6985   -7.9200    0.0000 C   0  0  1  0  0  0  0  0  0  0  0  0
    6.6985   -7.0950    0.0000 C   0  0  2  0  0  0  0  0  0  0  0  0
    5.9841   -6.6825    0.0000 C   0  0  0  0  0  0  0  0  0  0  0  0
    5.2696   -7.0950    0.0000 C   0  0  0  0  0  0  0  0  0  0  0  0
    8.1275   -7.9200    0.0000 C   0  0  0  0  0  0  0  0  0  0  0  0
    8.1275   -7.0950    0.0000 C   0  0  0  0  0  0  0  0  0  0  0  0
    7.4130   -6.6825    0.0000 C   0  0  2  0  0  0  0  0  0  0  0  0
    7.4130   -5.8575    0.0000 C   0  0  1  0  0  0  0  0  0  0  0  0
    2.4117   -9.5700    0.0000 O   0  0  0  0  0  0  0  0  0  0  0  0
    4.2531  -10.2845    0.0000 C   0  0  0  0  0  0  0  0  0  0  0  0
    4.5551   -7.5075    0.0000 C   0  0  0  0  0  0  0  0  0  0  0  0
    5.9841   -7.5075    0.0000 C   0  0  0  0  0  0  0  0  0  0  0  0
    3.4281  -10.2845    0.0000 C   0  0  0  0  0  0  0  0  0  0  0  0
    6.9121   -8.7169    0.0000 C   0  0  0  0  0  0  0  0  0  0  0  0
    8.1275   -6.2700    0.0000 H   0  0  0  0  0  0  0  0  0  0  0  0
    6.6985   -6.2700    0.0000 H   0  0  0  0  0  0  0  0  0  0  0  0
    8.1275   -5.4450    0.0000 O   0  0  0  0  0  0  0  0  0  0  0  0
    8.1275   -4.6200    0.0000 C   0  0  1  0  0  0  0  0  0  0  0  0
    7.4130   -4.2075    0.0000 C   0  0  2  0  0  0  0  0  0  0  0  0
    6.6985   -4.6200    0.0000 C   0  0  0  0  0  0  0  0  0  0  0  0
    6.6985   -5.4450    0.0000 C   0  0  0  0  0  0  0  0  0  0  0  0
    6.5880   -5.8575    0.0000 C   0  0  0  0  0  0  0  0  0  0  0  0
    8.9244   -4.8335    0.0000 C   0  0  0  0  0  0  0  0  0  0  0  0
    8.7108   -4.0366    0.0000 C   0  0  0  0  0  0  0  0  0  0  0  0
    7.0005   -3.4930    0.0000 O   0  0  0  0  0  0  0  0  0  0  0  0
    7.8255   -3.4930    0.0000 H   0  0  0  0  0  0  0  0  0  0  0  0
  1  2  1  0  0  0  0
  2  3  1  0  0  0  0
  3  4  1  0  0  0  0
  4  5  1  0  0  0  0
  5  6  1  0  0  0  0
  6  1  1  0  0  0  0
  4  7  1  0  0  0  0
  7  8  1  0  0  0  0
  8  9  1  0  0  0  0
  9 10  1  0  0  0  0
 10  5  1  0  0  0  0
  9 11  1  0  0  0  0
 11 12  1  0  0  0  0
 12 13  1  0  0  0  0
 13 14  1  0  0  0  0
 14 10  1  0  0  0  0
 15 16  1  0  0  0  0
 16 17  1  0  0  0  0
 17 12  1  0  0  0  0
 11 15  1  0  0  0  0
 17 18  1  0  0  0  0
  2 19  1  1  0  0  0
  3 20  1  1  0  0  0
  5 21  1  1  0  0  0
  9 22  1  1  0  0  0
  3 23  1  6  0  0  0
 11 24  1  6  0  0  0
 17 25  1  6  0  0  0
 12 26  1  1  0  0  0
 18 27  1  0  0  0  0
 27 28  1  0  0  0  0
 28 29  1  0  0  0  0
 29 30  1  0  0  0  0
 30 31  1  0  0  0  0
 31 18  1  0  0  0  0
 18 32  1  1  0  0  0
 28 33  1  1  0  0  0
 28 34  1  6  0  0  0
 29 35  1  6  0  0  0
 29 36  1  1  0  0  0
M  END
>  <cdx:fragmentId>
5

$$$$
