99288.cdx
  Mrv1902 05222410222D          

  9  8  0  0  0  0            999 V2000
    7.5751   -4.5440    0.0000 C   0  0  0  0  0  0  0  0  0  0  0  0
    6.8540   -4.1433    0.0000 C   0  0  2  0  0  0  0  0  0  0  0  0
    6.8404   -3.3184    0.0000 C   0  0  1  0  0  0  0  0  0  0  0  0
    6.1192   -2.9177    0.0000 C   0  0  0  0  0  0  0  0  0  0  0  0
    6.1057   -2.0928    0.0000 C   0  0  0  0  0  0  0  0  0  0  0  0
    8.2827   -4.1198    0.0000 O   0  0  0  0  0  0  0  0  0  0  0  0
    7.5887   -5.3689    0.0000 O   0  0  0  0  0  0  0  0  0  0  0  0
    7.5480   -2.8942    0.0000 C   0  0  0  0  0  0  0  0  0  0  0  0
    6.1464   -4.5675    0.0000 N   0  0  0  0  0  0  0  0  0  0  0  0
  1  2  1  0  0  0  0
  2  3  1  0  0  0  0
  3  4  1  0  0  0  0
  4  5  1  0  0  0  0
  1  6  2  0  0  0  0
  1  7  1  0  0  0  0
  3  8  1  1  0  0  0
  2  9  1  1  0  0  0
M  END
>  <cdx:groupId>
28

>  <cdx:fragmentId>
5

$$$$
