99289.cdx
  Mrv1902 05222410222D          

 39 42  0  0  0  0            999 V2000
    4.3912   -8.6487    0.0000 C   0  0  0  0  0  0  0  0  0  0  0  0
    4.3912   -9.4738    0.0000 C   0  0  1  0  0  0  0  0  0  0  0  0
    5.1056   -9.8863    0.0000 C   0  0  1  0  0  0  0  0  0  0  0  0
    5.8201   -9.4738    0.0000 C   0  0  1  0  0  0  0  0  0  0  0  0
    5.8201   -8.6487    0.0000 C   0  0  2  0  0  0  0  0  0  0  0  0
    5.1056   -8.2363    0.0000 C   0  0  0  0  0  0  0  0  0  0  0  0
    6.5346   -9.8863    0.0000 C   0  0  0  0  0  0  0  0  0  0  0  0
    7.2491   -9.4738    0.0000 C   0  0  0  0  0  0  0  0  0  0  0  0
    7.2491   -8.6487    0.0000 C   0  0  2  0  0  0  0  0  0  0  0  0
    6.5346   -8.2363    0.0000 C   0  0  2  0  0  0  0  0  0  0  0  0
    7.9635   -8.2363    0.0000 C   0  0  1  0  0  0  0  0  0  0  0  0
    7.9635   -7.4112    0.0000 C   0  0  2  0  0  0  0  0  0  0  0  0
    7.2491   -6.9988    0.0000 C   0  0  0  0  0  0  0  0  0  0  0  0
    6.5346   -7.4112    0.0000 C   0  0  0  0  0  0  0  0  0  0  0  0
    9.3925   -8.2363    0.0000 C   0  0  0  0  0  0  0  0  0  0  0  0
    9.3925   -7.4112    0.0000 C   0  0  0  0  0  0  0  0  0  0  0  0
    8.6780   -6.9988    0.0000 C   0  0  2  0  0  0  0  0  0  0  0  0
    8.6780   -6.1737    0.0000 C   0  0  1  0  0  0  0  0  0  0  0  0
    3.6767   -9.8863    0.0000 O   0  0  0  0  0  0  0  0  0  0  0  0
    5.5181  -10.6007    0.0000 C   0  0  0  0  0  0  0  0  0  0  0  0
    5.8201   -7.8237    0.0000 C   0  0  0  0  0  0  0  0  0  0  0  0
    7.2491   -7.8237    0.0000 C   0  0  0  0  0  0  0  0  0  0  0  0
    4.6931  -10.6007    0.0000 C   0  0  0  0  0  0  0  0  0  0  0  0
    8.1771   -9.0331    0.0000 C   0  0  0  0  0  0  0  0  0  0  0  0
    9.3925   -6.5863    0.0000 H   0  0  0  0  0  0  0  0  0  0  0  0
    7.9635   -6.5863    0.0000 H   0  0  0  0  0  0  0  0  0  0  0  0
    9.3925   -5.7612    0.0000 C   0  0  0  0  0  0  0  0  0  0  0  0
    7.9635   -5.7612    0.0000 C   0  0  0  0  0  0  0  0  0  0  0  0
    5.8201  -10.2988    0.0000 H   0  0  0  0  0  0  0  0  0  0  0  0
    6.5346   -9.0613    0.0000 H   0  0  0  0  0  0  0  0  0  0  0  0
    8.6780   -5.3487    0.0000 O   0  0  0  0  0  0  0  0  0  0  0  0
   10.1069   -6.1737    0.0000 C   0  0  0  0  0  0  0  0  0  0  0  0
   10.8214   -5.7612    0.0000 C   0  0  0  0  0  0  0  0  0  0  0  0
   11.5359   -6.1737    0.0000 C   0  0  0  0  0  0  0  0  0  0  0  0
   12.2504   -5.7612    0.0000 C   0  0  0  0  0  0  0  0  0  0  0  0
   11.5359   -6.9987    0.0000 C   0  0  0  0  0  0  0  0  0  0  0  0
    2.9622   -9.4738    0.0000 C   0  0  0  0  0  0  0  0  0  0  0  0
    2.2478   -9.8863    0.0000 C   0  0  0  0  0  0  0  0  0  0  0  0
    2.9622   -8.6487    0.0000 O   0  0  0  0  0  0  0  0  0  0  0  0
  1  2  1  0  0  0  0
  2  3  1  0  0  0  0
  3  4  1  0  0  0  0
  4  5  1  0  0  0  0
  5  6  1  0  0  0  0
  6  1  1  0  0  0  0
  4  7  1  0  0  0  0
  7  8  1  0  0  0  0
  8  9  1  0  0  0  0
  9 10  1  0  0  0  0
 10  5  1  0  0  0  0
  9 11  1  0  0  0  0
 11 12  1  0  0  0  0
 12 13  1  0  0  0  0
 13 14  1  0  0  0  0
 14 10  1  0  0  0  0
 15 16  1  0  0  0  0
 16 17  1  0  0  0  0
 17 12  1  0  0  0  0
 11 15  1  0  0  0  0
 17 18  1  0  0  0  0
  2 19  1  1  0  0  0
  3 20  1  1  0  0  0
  5 21  1  1  0  0  0
  9 22  1  1  0  0  0
  3 23  1  6  0  0  0
 11 24  1  6  0  0  0
 17 25  1  6  0  0  0
 12 26  1  1  0  0  0
 18 27  1  0  0  0  0
 18 28  1  6  0  0  0
  4 29  1  6  0  0  0
 10 30  1  6  0  0  0
 18 31  1  1  0  0  0
 27 32  1  0  0  0  0
 32 33  1  0  0  0  0
 33 34  2  0  0  0  0
 34 35  1  0  0  0  0
 34 36  1  0  0  0  0
 19 37  1  0  0  0  0
 37 38  1  0  0  0  0
 37 39  2  0  0  0  0
M  END
>  <cdx:fragmentId>
5

$$$$
