99285.cdx
  Mrv1902 05222410242D          

 14 14  0  0  0  0            999 V2000
    9.3425   -7.9528    0.0000 C   0  0  0  0  0  0  0  0  0  0  0  0
    8.6280   -7.5403    0.0000 C   0  0  0  0  0  0  0  0  0  0  0  0
    7.9136   -7.9528    0.0000 C   0  0  0  0  0  0  0  0  0  0  0  0
    7.1991   -8.3653    0.0000 C   0  0  0  0  0  0  0  0  0  0  0  0
    8.6280   -6.7153    0.0000 O   0  0  0  0  0  0  0  0  0  0  0  0
    6.4846   -8.7778    0.0000 C   0  0  0  0  0  0  0  0  0  0  0  0
    5.7701   -8.3653    0.0000 C   0  0  0  0  0  0  0  0  0  0  0  0
    5.0557   -8.7778    0.0000 C   0  0  0  0  0  0  0  0  0  0  0  0
    5.0557   -9.6028    0.0000 C   0  0  0  0  0  0  0  0  0  0  0  0
    5.7701  -10.0153    0.0000 C   0  0  0  0  0  0  0  0  0  0  0  0
    6.4846   -9.6028    0.0000 C   0  0  0  0  0  0  0  0  0  0  0  0
    7.3096   -9.6028    0.0000 C   0  0  0  0  0  0  0  0  0  0  0  0
    6.8971  -10.3173    0.0000 C   0  0  0  0  0  0  0  0  0  0  0  0
    5.7701   -7.5403    0.0000 C   0  0  0  0  0  0  0  0  0  0  0  0
  1  2  1  0  0  0  0
  2  3  1  0  0  0  0
  3  4  3  0  0  0  0
  2  5  2  0  0  0  0
  6  7  1  0  0  0  0
  7  8  2  0  0  0  0
  8  9  1  0  0  0  0
  9 10  1  0  0  0  0
 10 11  1  0  0  0  0
  6 11  1  0  0  0  0
 11 12  1  0  0  0  0
 11 13  1  0  0  0  0
  7 14  1  0  0  0  0
  4  6  1  0  0  0  0
M  END
>  <cdx:fragmentId>
15

$$$$
