99299.cdx
  Mrv1902 05222410212D          

 79 88  0  0  0  0            999 V2000
   15.0940  -11.5494    0.0000 C   0  0  1  0  0  0  0  0  0  0  0  0
   15.8084  -11.1369    0.0000 C   0  0  2  0  0  0  0  0  0  0  0  0
   16.5930  -11.3919    0.0000 C   0  0  0  0  0  0  0  0  0  0  0  0
   17.0780  -10.7244    0.0000 C   0  0  2  0  0  0  0  0  0  0  0  0
   17.8626  -10.4695    0.0000 O   0  0  0  0  0  0  0  0  0  0  0  0
   17.8626   -9.6445    0.0000 C   0  0  2  0  0  0  0  0  0  0  0  0
   17.0780   -9.3895    0.0000 C   0  0  2  0  0  0  0  0  0  0  0  0
   16.5930  -10.0570    0.0000 C   0  0  2  0  0  0  0  0  0  0  0  0
   15.8084  -10.3119    0.0000 C   0  0  1  0  0  0  0  0  0  0  0  0
   15.0940   -9.8994    0.0000 C   0  0  0  0  0  0  0  0  0  0  0  0
   14.3795  -10.3119    0.0000 C   0  0  0  0  0  0  0  0  0  0  0  0
   14.3795  -11.1369    0.0000 C   0  0  2  0  0  0  0  0  0  0  0  0
   13.6650  -11.5494    0.0000 C   0  0  1  0  0  0  0  0  0  0  0  0
   12.9505  -11.1369    0.0000 C   0  0  1  0  0  0  0  0  0  0  0  0
   12.2361  -11.5494    0.0000 C   0  0  0  0  0  0  0  0  0  0  0  0
   12.2361  -12.3744    0.0000 C   0  0  1  0  0  0  0  0  0  0  0  0
   12.9505  -12.7869    0.0000 C   0  0  0  0  0  0  0  0  0  0  0  0
   13.6650  -12.3744    0.0000 C   0  0  0  0  0  0  0  0  0  0  0  0
   14.3795  -12.7869    0.0000 C   0  0  0  0  0  0  0  0  0  0  0  0
   15.0940  -12.3744    0.0000 C   0  0  0  0  0  0  0  0  0  0  0  0
   17.7764   -8.8240    0.0000 O   0  0  0  0  0  0  0  0  0  0  0  0
   18.6163   -9.9800    0.0000 C   0  0  2  0  0  0  0  0  0  0  0  0
   19.2837   -9.4951    0.0000 C   0  0  2  0  0  0  0  0  0  0  0  0
   19.1975   -8.6746    0.0000 C   0  0  2  0  0  0  0  0  0  0  0  0
   18.4438   -8.3391    0.0000 C   0  0  0  0  0  0  0  0  0  0  0  0
   13.6650  -10.7244    0.0000 C   0  0  0  0  0  0  0  0  0  0  0  0
   15.8084   -9.4869    0.0000 C   0  0  0  0  0  0  0  0  0  0  0  0
   16.8230   -8.6049    0.0000 C   0  0  0  0  0  0  0  0  0  0  0  0
   19.8649   -8.1897    0.0000 C   0  0  0  0  0  0  0  0  0  0  0  0
   15.0940  -10.7244    0.0000 H   0  0  0  0  0  0  0  0  0  0  0  0
   15.8084  -11.9619    0.0000 H   0  0  0  0  0  0  0  0  0  0  0  0
   17.5629  -11.3919    0.0000 H   0  0  0  0  0  0  0  0  0  0  0  0
   16.2314   -9.3155    0.0000 H   0  0  0  0  0  0  0  0  0  0  0  0
   14.3795  -11.9619    0.0000 H   0  0  0  0  0  0  0  0  0  0  0  0
   11.5216  -12.7869    0.0000 O   0  0  0  0  0  0  0  0  0  0  0  0
   18.7025  -10.8005    0.0000 O   0  0  0  0  0  0  0  0  0  0  0  0
   20.0374   -9.8307    0.0000 O   0  0  0  0  0  0  0  0  0  0  0  0
   12.9505  -10.3119    0.0000 O   0  0  0  0  0  0  0  0  0  0  0  0
   17.3751   -7.9918    0.0000 O   0  0  0  0  0  0  0  0  0  0  0  0
   12.5460   -9.5929    0.0000 C   0  0  2  0  0  0  0  0  0  0  0  0
   12.9663   -8.8831    0.0000 O   0  0  0  0  0  0  0  0  0  0  0  0
   12.5618   -8.1641    0.0000 C   0  0  1  0  0  0  0  0  0  0  0  0
   11.7368   -8.1550    0.0000 C   0  0  2  0  0  0  0  0  0  0  0  0
   11.3164   -8.8648    0.0000 C   0  0  1  0  0  0  0  0  0  0  0  0
   11.7210   -9.5838    0.0000 C   0  0  1  0  0  0  0  0  0  0  0  0
   12.9822   -7.4542    0.0000 C   0  0  0  0  0  0  0  0  0  0  0  0
   10.4915   -8.8557    0.0000 O   0  0  0  0  0  0  0  0  0  0  0  0
   11.3006  -10.2937    0.0000 O   0  0  0  0  0  0  0  0  0  0  0  0
   11.3323   -7.4360    0.0000 O   0  0  0  0  0  0  0  0  0  0  0  0
   12.5776   -6.7352    0.0000 O   0  0  0  0  0  0  0  0  0  0  0  0
   10.5847  -10.7036    0.0000 C   0  0  2  0  0  0  0  0  0  0  0  0
    9.7907   -8.4204    0.0000 C   0  0  2  0  0  0  0  0  0  0  0  0
    9.8217   -7.5960    0.0000 O   0  0  0  0  0  0  0  0  0  0  0  0
    9.1233   -7.1569    0.0000 C   0  0  0  0  0  0  0  0  0  0  0  0
    8.3933   -7.5659    0.0000 C   0  0  2  0  0  0  0  0  0  0  0  0
    8.3759   -8.3906    0.0000 C   0  0  1  0  0  0  0  0  0  0  0  0
    9.0880   -8.8300    0.0000 C   0  0  1  0  0  0  0  0  0  0  0  0
    9.8717  -10.2886    0.0000 O   0  0  0  0  0  0  0  0  0  0  0  0
    9.1558  -10.6985    0.0000 C   0  0  2  0  0  0  0  0  0  0  0  0
    9.1528  -11.5235    0.0000 C   0  0  1  0  0  0  0  0  0  0  0  0
    9.8658  -11.9385    0.0000 C   0  0  2  0  0  0  0  0  0  0  0  0
   10.5817  -11.5286    0.0000 C   0  0  1  0  0  0  0  0  0  0  0  0
    8.4369  -11.9334    0.0000 O   0  0  0  0  0  0  0  0  0  0  0  0
    9.8628  -12.7635    0.0000 O   0  0  0  0  0  0  0  0  0  0  0  0
   11.2947  -11.9437    0.0000 O   0  0  0  0  0  0  0  0  0  0  0  0
    8.4428  -10.2834    0.0000 C   0  0  0  0  0  0  0  0  0  0  0  0
    9.0776   -9.6549    0.0000 O   0  0  0  0  0  0  0  0  0  0  0  0
    7.6512   -8.7850    0.0000 O   0  0  0  0  0  0  0  0  0  0  0  0
    7.6859   -7.1413    0.0000 O   0  0  0  0  0  0  0  0  0  0  0  0
   17.1201   -7.2072    0.0000 C   0  0  2  0  0  0  0  0  0  0  0  0
   17.6722   -6.5941    0.0000 O   0  0  0  0  0  0  0  0  0  0  0  0
   17.4172   -5.8095    0.0000 C   0  0  1  0  0  0  0  0  0  0  0  0
   16.6102   -5.6380    0.0000 C   0  0  1  0  0  0  0  0  0  0  0  0
   16.0582   -6.2511    0.0000 C   0  0  1  0  0  0  0  0  0  0  0  0
   16.3132   -7.0357    0.0000 C   0  0  1  0  0  0  0  0  0  0  0  0
   15.7611   -7.6488    0.0000 O   0  0  0  0  0  0  0  0  0  0  0  0
   15.2512   -6.0795    0.0000 O   0  0  0  0  0  0  0  0  0  0  0  0
   16.3553   -4.8533    0.0000 O   0  0  0  0  0  0  0  0  0  0  0  0
   17.9692   -5.1964    0.0000 C   0  0  0  0  0  0  0  0  0  0  0  0
  1  2  1  0  0  0  0
  2  3  1  0  0  0  0
  3  4  1  0  0  0  0
  4  5  1  0  0  0  0
  6  5  1  6  0  0  0
  6  7  1  0  0  0  0
  7  8  1  0  0  0  0
  8  9  1  0  0  0  0
  9 10  1  0  0  0  0
 10 11  1  0  0  0  0
 11 12  1  0  0  0  0
 12 13  1  0  0  0  0
 13 14  1  0  0  0  0
 14 15  1  0  0  0  0
 15 16  1  0  0  0  0
 16 17  1  0  0  0  0
 17 18  1  0  0  0  0
 18 19  2  0  0  0  0
 19 20  1  0  0  0  0
  1 20  1  0  0  0  0
  1 12  1  0  0  0  0
 13 18  1  0  0  0  0
  2  9  1  0  0  0  0
  4  8  1  0  0  0  0
 22 23  1  0  0  0  0
 23 24  1  0  0  0  0
 24 25  1  0  0  0  0
 21 25  1  0  0  0  0
  6 21  1  0  0  0  0
  6 22  1  0  0  0  0
 13 26  1  1  0  0  0
  9 27  1  1  0  0  0
  7 28  1  6  0  0  0
 24 29  1  6  0  0  0
 16 35  1  1  0  0  0
  1 30  1  1  0  0  0
  2 31  1  6  0  0  0
  4 32  1  6  0  0  0
  8 33  1  6  0  0  0
 12 34  1  6  0  0  0
 22 36  1  6  0  0  0
 23 37  1  6  0  0  0
 14 38  1  1  0  0  0
 28 39  1  0  0  0  0
 40 38  1  1  0  0  0
 40 41  1  0  0  0  0
 41 42  1  0  0  0  0
 42 43  1  0  0  0  0
 43 44  1  0  0  0  0
 44 45  1  0  0  0  0
 45 40  1  0  0  0  0
 42 46  1  1  0  0  0
 44 47  1  1  0  0  0
 45 48  1  6  0  0  0
 43 49  1  6  0  0  0
 46 50  1  0  0  0  0
 51 48  1  1  0  0  0
 52 47  1  1  0  0  0
 52 53  1  0  0  0  0
 53 54  1  0  0  0  0
 54 55  1  0  0  0  0
 55 56  1  0  0  0  0
 56 57  1  0  0  0  0
 57 52  1  0  0  0  0
 51 58  1  0  0  0  0
 58 59  1  0  0  0  0
 59 60  1  0  0  0  0
 60 61  1  0  0  0  0
 61 62  1  0  0  0  0
 62 51  1  0  0  0  0
 60 63  1  1  0  0  0
 61 64  1  6  0  0  0
 62 65  1  6  0  0  0
 59 66  1  6  0  0  0
 57 67  1  6  0  0  0
 56 68  1  1  0  0  0
 55 69  1  6  0  0  0
 70 39  1  1  0  0  0
 70 71  1  0  0  0  0
 71 72  1  0  0  0  0
 72 73  1  0  0  0  0
 73 74  1  0  0  0  0
 74 75  1  0  0  0  0
 75 70  1  0  0  0  0
 75 76  1  6  0  0  0
 74 77  1  1  0  0  0
 73 78  1  1  0  0  0
 72 79  1  1  0  0  0
M  END
>  <cdx:fragmentId>
198565

$$$$
