10992904.cdx
  Mrv1902 05222410242D          

 28 28  0  0  0  0            999 V2000
   16.4921  -12.5603    0.0000 O   0  0  0  0  0  0  0  0  0  0  0  0
   17.0441  -11.9472    0.0000 C   0  0  0  0  0  0  0  0  0  0  0  0
   16.6316  -11.2327    0.0000 C   0  0  0  0  0  0  0  0  0  0  0  0
   15.8246  -11.4042    0.0000 C   0  0  0  0  0  0  0  0  0  0  0  0
   15.7384  -12.2247    0.0000 C   0  0  2  0  0  0  0  0  0  0  0  0
   17.8646  -12.0334    0.0000 O   0  0  0  0  0  0  0  0  0  0  0  0
   15.0239  -12.6372    0.0000 C   0  0  0  0  0  0  0  0  0  0  0  0
   14.3095  -12.2247    0.0000 C   0  0  0  0  0  0  0  0  0  0  0  0
   13.5950  -12.6372    0.0000 C   0  0  0  0  0  0  0  0  0  0  0  0
   12.8805  -12.2247    0.0000 C   0  0  0  0  0  0  0  0  0  0  0  0
   12.1660  -12.6372    0.0000 C   0  0  0  0  0  0  0  0  0  0  0  0
   11.4516  -12.2247    0.0000 C   0  0  0  0  0  0  0  0  0  0  0  0
   10.7371  -12.6372    0.0000 C   0  0  0  0  0  0  0  0  0  0  0  0
   10.0226  -12.2247    0.0000 C   0  0  0  0  0  0  0  0  0  0  0  0
    9.3082  -12.6372    0.0000 C   0  0  0  0  0  0  0  0  0  0  0  0
    8.5937  -12.2247    0.0000 C   0  0  0  0  0  0  0  0  0  0  0  0
    7.8792  -12.6372    0.0000 C   0  0  0  0  0  0  0  0  0  0  0  0
    7.1647  -12.2247    0.0000 C   0  0  0  0  0  0  0  0  0  0  0  0
    6.4503  -12.6372    0.0000 C   0  0  0  0  0  0  0  0  0  0  0  0
    5.7358  -12.2247    0.0000 C   0  0  0  0  0  0  0  0  0  0  0  0
    5.0213  -12.6372    0.0000 C   0  0  0  0  0  0  0  0  0  0  0  0
    4.3069  -12.2247    0.0000 C   0  0  0  0  0  0  0  0  0  0  0  0
    3.5924  -12.6372    0.0000 C   0  0  0  0  0  0  0  0  0  0  0  0
    2.8779  -12.2247    0.0000 C   0  0  0  0  0  0  0  0  0  0  0  0
    2.1635  -12.6372    0.0000 C   0  0  0  0  0  0  0  0  0  0  0  0
    1.4490  -12.2247    0.0000 C   0  0  0  0  0  0  0  0  0  0  0  0
    0.7345  -12.6372    0.0000 C   0  0  0  0  0  0  0  0  0  0  0  0
    0.0200  -12.2247    0.0000 C   0  0  0  0  0  0  0  0  0  0  0  0
  1  2  1  0  0  0  0
  2  3  1  0  0  0  0
  3  4  1  0  0  0  0
  4  5  1  0  0  0  0
  1  5  1  0  0  0  0
  2  6  2  0  0  0  0
  7  8  1  0  0  0  0
  8  9  1  0  0  0  0
  9 10  1  0  0  0  0
 10 11  1  0  0  0  0
 11 12  1  0  0  0  0
 12 13  1  0  0  0  0
 13 14  1  0  0  0  0
 14 15  1  0  0  0  0
 15 16  1  0  0  0  0
 16 17  1  0  0  0  0
 17 18  1  0  0  0  0
 18 19  1  0  0  0  0
 19 20  1  0  0  0  0
 20 21  1  0  0  0  0
 21 22  1  0  0  0  0
 22 23  1  0  0  0  0
 23 24  1  0  0  0  0
 24 25  1  0  0  0  0
 25 26  1  0  0  0  0
 26 27  1  0  0  0  0
 27 28  1  0  0  0  0
  5  7  1  1  0  0  0
M  END
>  <cdx:groupId>
64479

>  <cdx:fragmentId>
64410

$$$$
