99294.cdx
  Mrv1902 05222410252D          

 20 22  0  0  0  0            999 V2000
    7.3631   -7.1766    0.0000 C   0  0  0  0  0  0  0  0  0  0  0  0
    7.1115   -7.9623    0.0000 C   0  0  0  0  0  0  0  0  0  0  0  0
    7.7810   -8.4444    0.0000 C   0  0  0  0  0  0  0  0  0  0  0  0
    8.4464   -7.9566    0.0000 C   0  0  0  0  0  0  0  0  0  0  0  0
    8.1881   -7.1731    0.0000 C   0  0  0  0  0  0  0  0  0  0  0  0
    9.2713   -7.9531    0.0000 C   0  0  0  0  0  0  0  0  0  0  0  0
    9.5229   -7.1674    0.0000 N   0  0  0  0  0  0  0  0  0  0  0  0
    8.8534   -6.6853    0.0000 C   0  0  0  0  0  0  0  0  0  0  0  0
    9.7591   -8.6185    0.0000 O   0  0  0  0  0  0  0  0  0  0  0  0
    8.8499   -5.8603    0.0000 O   0  0  0  0  0  0  0  0  0  0  0  0
    6.3280   -8.2206    0.0000 C   0  0  0  0  0  0  0  0  0  0  0  0
    5.6585   -7.7385    0.0000 O   0  0  0  0  0  0  0  0  0  0  0  0
    4.9931   -8.2263    0.0000 C   0  0  1  0  0  0  0  0  0  0  0  0
    5.2514   -9.0098    0.0000 C   0  0  1  0  0  0  0  0  0  0  0  0
    6.0764   -9.0063    0.0000 C   0  0  1  0  0  0  0  0  0  0  0  0
    7.0218   -8.6670    0.0000 H   0  0  0  0  0  0  0  0  0  0  0  0
    6.5641   -9.6717    0.0000 O   0  0  0  0  0  0  0  0  0  0  0  0
    4.7693   -9.6793    0.0000 O   0  0  0  0  0  0  0  0  0  0  0  0
    4.2074   -7.9747    0.0000 C   0  0  0  0  0  0  0  0  0  0  0  0
    3.5967   -8.5293    0.0000 O   0  0  0  0  0  0  0  0  0  0  0  0
  1  2  2  0  0  0  0
  2  3  1  0  0  0  0
  3  4  2  0  0  0  0
  4  5  1  0  0  0  0
  5  1  1  0  0  0  0
  4  6  1  0  0  0  0
  6  7  2  0  0  0  0
  7  8  1  0  0  0  0
  8  5  2  0  0  0  0
  6  9  1  0  0  0  0
  8 10  1  0  0  0  0
  2 11  1  0  0  0  0
 11 12  1  1  0  0  0
 13 12  1  1  0  0  0
 13 14  1  0  0  0  0
 14 15  1  0  0  0  0
 15 11  1  0  0  0  0
 11 16  1  6  0  0  0
 15 17  1  6  0  0  0
 14 18  1  1  0  0  0
 13 19  1  1  0  0  0
 19 20  1  0  0  0  0
M  END
>  <cdx:fragmentId>
5

$$$$
