99296.cdx
  Mrv1902 05222410252D          

 29 31  0  0  0  0            999 V2000
    4.2262   -6.9575    0.0000 C   0  0  0  0  0  0  0  0  0  0  0  0
    4.2262   -7.7825    0.0000 C   0  0  2  0  0  0  0  0  0  0  0  0
    4.9406   -8.1950    0.0000 O   0  0  0  0  0  0  0  0  0  0  0  0
    5.6551   -7.7825    0.0000 C   0  0  2  0  0  0  0  0  0  0  0  0
    5.6551   -6.9575    0.0000 C   0  0  1  0  0  0  0  0  0  0  0  0
    4.9406   -6.5450    0.0000 C   0  0  1  0  0  0  0  0  0  0  0  0
    4.9406   -5.7200    0.0000 O   0  0  0  0  0  0  0  0  0  0  0  0
    6.3696   -6.5450    0.0000 O   0  0  0  0  0  0  0  0  0  0  0  0
    4.2262   -8.6075    0.0000 O   0  0  0  0  0  0  0  0  0  0  0  0
    5.6551   -8.6075    0.0000 C   0  0  0  0  0  0  0  0  0  0  0  0
    6.2385   -9.1909    0.0000 C   0  0  0  0  0  0  0  0  0  0  0  0
    7.0354   -8.9773    0.0000 O   0  0  0  0  0  0  0  0  0  0  0  0
    3.5117   -8.1950    0.0000 C   0  0  0  0  0  0  0  0  0  0  0  0
    3.5117   -9.0200    0.0000 O   0  0  0  0  0  0  0  0  0  0  0  0
    2.7972   -7.7825    0.0000 O   0  0  0  0  0  0  0  0  0  0  0  0
   12.1772   -8.9544    0.0000 O   0  0  0  0  0  0  0  0  0  0  0  0
   10.4041  -10.2274    0.0000 C   0  0  0  0  0  0  0  0  0  0  0  0
   11.1948   -9.9921    0.0000 C   0  0  0  0  0  0  0  0  0  0  0  0
   11.3865   -9.1897    0.0000 C   0  0  0  0  0  0  0  0  0  0  0  0
   10.7873   -8.6225    0.0000 C   0  0  0  0  0  0  0  0  0  0  0  0
    9.9966   -8.8578    0.0000 C   0  0  0  0  0  0  0  0  0  0  0  0
    9.8050   -9.6602    0.0000 C   0  0  0  0  0  0  0  0  0  0  0  0
    9.0142   -9.8955    0.0000 C   0  0  0  0  0  0  0  0  0  0  0  0
    7.4327  -10.3660    0.0000 O   0  0  0  0  0  0  0  0  0  0  0  0
    8.4151   -9.3283    0.0000 C   0  0  0  0  0  0  0  0  0  0  0  0
    7.6244   -9.5636    0.0000 C   0  0  0  0  0  0  0  0  0  0  0  0
   10.9790   -7.8201    0.0000 O   0  0  0  0  0  0  0  0  0  0  0  0
    3.5117   -6.5450    0.0000 O   0  0  0  0  0  0  0  0  0  0  0  0
    6.0250   -9.9878    0.0000 O   0  0  0  0  0  0  0  0  0  0  0  0
  1  2  1  0  0  0  0
  2  3  1  1  0  0  0
  4  3  1  1  0  0  0
  4  5  1  0  0  0  0
  5  6  1  0  0  0  0
  6  1  1  0  0  0  0
  6  7  1  6  0  0  0
  5  8  1  1  0  0  0
  2  9  1  0  0  0  0
  4 10  1  0  0  0  0
  9 10  1  0  0  0  0
 10 11  1  0  0  0  0
 11 12  1  0  0  0  0
  2 13  1  0  0  0  0
 13 14  2  0  0  0  0
 13 15  1  0  0  0  0
 19 16  1  0  0  0  0
 17 22  1  0  0  0  0
 18 17  2  0  0  0  0
 19 18  1  0  0  0  0
 20 19  2  0  0  0  0
 21 20  1  0  0  0  0
 22 21  2  0  0  0  0
 23 22  1  0  0  0  0
 25 23  2  0  0  0  0
 26 24  2  0  0  0  0
 26 25  1  0  0  0  0
 26 12  1  0  0  0  0
 20 27  1  0  0  0  0
  1 28  1  0  0  0  0
 11 29  1  0  0  0  0
M  END
>  <cdx:fragmentId>
5

$$$$
