99291.cdx
  Mrv1902 05222410242D          

 19 21  0  0  0  0            999 V2000
    9.0476   -9.5566    0.0000 C   0  0  0  0  0  0  0  0  0  0  0  0
    9.0567   -8.7316    0.0000 C   0  0  0  0  0  0  0  0  0  0  0  0
    8.3469   -8.3112    0.0000 C   0  0  0  0  0  0  0  0  0  0  0  0
    7.6279   -8.7158    0.0000 C   0  0  0  0  0  0  0  0  0  0  0  0
    7.6188   -9.5407    0.0000 C   0  0  0  0  0  0  0  0  0  0  0  0
    6.8998   -9.9453    0.0000 C   0  0  0  0  0  0  0  0  0  0  0  0
    6.1899   -9.5249    0.0000 C   0  0  0  0  0  0  0  0  0  0  0  0
    5.4709   -9.9295    0.0000 C   0  0  0  0  0  0  0  0  0  0  0  0
    5.4618  -10.7545    0.0000 C   0  0  0  0  0  0  0  0  0  0  0  0
    6.1716  -11.1748    0.0000 C   0  0  0  0  0  0  0  0  0  0  0  0
    6.8906  -10.7703    0.0000 C   0  0  0  0  0  0  0  0  0  0  0  0
    7.6005  -11.1906    0.0000 C   0  0  0  0  0  0  0  0  0  0  0  0
    8.3195  -10.7861    0.0000 C   0  0  0  0  0  0  0  0  0  0  0  0
    8.3286   -9.9611    0.0000 C   0  0  0  0  0  0  0  0  0  0  0  0
    6.1625  -11.9998    0.0000 C   0  0  0  0  0  0  0  0  0  0  0  0
    4.7428  -11.1590    0.0000 O   0  0  0  0  0  0  0  0  0  0  0  0
    9.7757   -8.3270    0.0000 O   0  0  0  0  0  0  0  0  0  0  0  0
    6.9180   -8.2954    0.0000 C   0  0  0  0  0  0  0  0  0  0  0  0
    6.2035   -8.7079    0.0000 O   0  0  0  0  0  0  0  0  0  0  0  0
  1  2  1  0  0  0  0
  2  3  2  0  0  0  0
  3  4  1  0  0  0  0
  4  5  2  0  0  0  0
  5  6  1  0  0  0  0
  6  7  1  0  0  0  0
  7  8  2  0  0  0  0
  8  9  1  0  0  0  0
  9 10  2  0  0  0  0
 10 11  1  0  0  0  0
  6 11  2  0  0  0  0
 11 12  1  0  0  0  0
 12 13  1  0  0  0  0
 13 14  1  0  0  0  0
  1 14  2  0  0  0  0
  5 14  1  0  0  0  0
 10 15  1  0  0  0  0
  9 16  1  0  0  0  0
  2 17  1  0  0  0  0
  4 18  1  0  0  0  0
 18 19  2  0  0  0  0
M  END
>  <cdx:fragmentId>
5

$$$$
