99305.cdx
  Mrv1902 05222410202D          

 79 88  0  0  0  0            999 V2000
   15.0940  -11.5494    0.0000 C   0  0  1  0  0  0  0  0  0  0  0  0
   15.8084  -11.1369    0.0000 C   0  0  2  0  0  0  0  0  0  0  0  0
   16.5930  -11.3919    0.0000 C   0  0  0  0  0  0  0  0  0  0  0  0
   17.0780  -10.7244    0.0000 C   0  0  2  0  0  0  0  0  0  0  0  0
   17.8626  -10.4695    0.0000 O   0  0  0  0  0  0  0  0  0  0  0  0
   17.8626   -9.6445    0.0000 C   0  0  2  0  0  0  0  0  0  0  0  0
   17.0780   -9.3895    0.0000 C   0  0  2  0  0  0  0  0  0  0  0  0
   16.5930  -10.0570    0.0000 C   0  0  2  0  0  0  0  0  0  0  0  0
   15.8084  -10.3119    0.0000 C   0  0  1  0  0  0  0  0  0  0  0  0
   15.0940   -9.8994    0.0000 C   0  0  0  0  0  0  0  0  0  0  0  0
   14.3795  -10.3119    0.0000 C   0  0  0  0  0  0  0  0  0  0  0  0
   14.3795  -11.1369    0.0000 C   0  0  2  0  0  0  0  0  0  0  0  0
   13.6650  -11.5494    0.0000 C   0  0  1  0  0  0  0  0  0  0  0  0
   12.9505  -11.1369    0.0000 C   0  0  1  0  0  0  0  0  0  0  0  0
   12.2361  -11.5494    0.0000 C   0  0  0  0  0  0  0  0  0  0  0  0
   12.2361  -12.3744    0.0000 C   0  0  1  0  0  0  0  0  0  0  0  0
   12.9505  -12.7869    0.0000 C   0  0  0  0  0  0  0  0  0  0  0  0
   13.6650  -12.3744    0.0000 C   0  0  0  0  0  0  0  0  0  0  0  0
   14.3795  -12.7869    0.0000 C   0  0  0  0  0  0  0  0  0  0  0  0
   15.0940  -12.3744    0.0000 C   0  0  0  0  0  0  0  0  0  0  0  0
   17.7764   -8.8240    0.0000 O   0  0  0  0  0  0  0  0  0  0  0  0
   18.6163   -9.9800    0.0000 C   0  0  0  0  0  0  0  0  0  0  0  0
   19.2837   -9.4951    0.0000 C   0  0  0  0  0  0  0  0  0  0  0  0
   19.1975   -8.6746    0.0000 C   0  0  2  0  0  0  0  0  0  0  0  0
   18.4438   -8.3391    0.0000 C   0  0  0  0  0  0  0  0  0  0  0  0
   13.6650  -10.7244    0.0000 C   0  0  0  0  0  0  0  0  0  0  0  0
   15.8084   -9.4869    0.0000 C   0  0  0  0  0  0  0  0  0  0  0  0
   16.8230   -8.6049    0.0000 C   0  0  0  0  0  0  0  0  0  0  0  0
   19.8649   -8.1897    0.0000 C   0  0  0  0  0  0  0  0  0  0  0  0
   15.0940  -10.7244    0.0000 H   0  0  0  0  0  0  0  0  0  0  0  0
   15.8084  -11.9619    0.0000 H   0  0  0  0  0  0  0  0  0  0  0  0
   17.5629  -11.3919    0.0000 H   0  0  0  0  0  0  0  0  0  0  0  0
   16.2314   -9.3155    0.0000 H   0  0  0  0  0  0  0  0  0  0  0  0
   14.3795  -11.9619    0.0000 H   0  0  0  0  0  0  0  0  0  0  0  0
   11.5216  -12.7869    0.0000 O   0  0  0  0  0  0  0  0  0  0  0  0
   12.9505  -10.3119    0.0000 O   0  0  0  0  0  0  0  0  0  0  0  0
   17.3751   -7.9918    0.0000 O   0  0  0  0  0  0  0  0  0  0  0  0
   18.7025  -10.8005    0.0000 O   0  0  0  0  0  0  0  0  0  0  0  0
   20.0374   -9.8307    0.0000 O   0  0  0  0  0  0  0  0  0  0  0  0
   20.1236  -10.6512    0.0000 C   0  0  2  0  0  0  0  0  0  0  0  0
   19.4562  -11.1361    0.0000 O   0  0  0  0  0  0  0  0  0  0  0  0
   19.5424  -11.9566    0.0000 C   0  0  1  0  0  0  0  0  0  0  0  0
   20.2961  -12.2921    0.0000 C   0  0  1  0  0  0  0  0  0  0  0  0
   20.9635  -11.8072    0.0000 C   0  0  1  0  0  0  0  0  0  0  0  0
   20.8773  -10.9867    0.0000 C   0  0  1  0  0  0  0  0  0  0  0  0
   21.5447  -10.5018    0.0000 O   0  0  0  0  0  0  0  0  0  0  0  0
   21.7172  -12.1428    0.0000 O   0  0  0  0  0  0  0  0  0  0  0  0
   20.3823  -13.1126    0.0000 O   0  0  0  0  0  0  0  0  0  0  0  0
   18.8750  -12.4415    0.0000 C   0  0  0  0  0  0  0  0  0  0  0  0
   12.5220   -9.6069    0.0000 C   0  0  2  0  0  0  0  0  0  0  0  0
   12.9183   -8.8833    0.0000 O   0  0  0  0  0  0  0  0  0  0  0  0
   12.4898   -8.1784    0.0000 C   0  0  1  0  0  0  0  0  0  0  0  0
   11.6650   -8.1969    0.0000 C   0  0  2  0  0  0  0  0  0  0  0  0
   11.2688   -8.9205    0.0000 C   0  0  1  0  0  0  0  0  0  0  0  0
   11.6973   -9.6255    0.0000 C   0  0  1  0  0  0  0  0  0  0  0  0
   12.8861   -7.4548    0.0000 C   0  0  0  0  0  0  0  0  0  0  0  0
   10.4440   -8.9391    0.0000 O   0  0  0  0  0  0  0  0  0  0  0  0
   11.3010  -10.3491    0.0000 O   0  0  0  0  0  0  0  0  0  0  0  0
   11.2366   -7.4920    0.0000 O   0  0  0  0  0  0  0  0  0  0  0  0
   12.4576   -6.7498    0.0000 O   0  0  0  0  0  0  0  0  0  0  0  0
   10.5778  -10.7462    0.0000 C   0  0  2  0  0  0  0  0  0  0  0  0
    9.8673  -10.3269    0.0000 O   0  0  0  0  0  0  0  0  0  0  0  0
    9.1489  -10.7325    0.0000 C   0  0  2  0  0  0  0  0  0  0  0  0
    9.1410  -11.5575    0.0000 C   0  0  1  0  0  0  0  0  0  0  0  0
    9.8515  -11.9768    0.0000 C   0  0  2  0  0  0  0  0  0  0  0  0
   10.5699  -11.5711    0.0000 C   0  0  1  0  0  0  0  0  0  0  0  0
    8.4226  -11.9631    0.0000 O   0  0  0  0  0  0  0  0  0  0  0  0
    8.4384  -10.3132    0.0000 C   0  0  0  0  0  0  0  0  0  0  0  0
    9.8436  -12.8018    0.0000 O   0  0  0  0  0  0  0  0  0  0  0  0
   11.2804  -11.9905    0.0000 O   0  0  0  0  0  0  0  0  0  0  0  0
   10.0155   -8.2341    0.0000 C   0  0  2  0  0  0  0  0  0  0  0  0
   10.3954   -7.5018    0.0000 O   0  0  0  0  0  0  0  0  0  0  0  0
    9.9511   -6.8066    0.0000 C   0  0  0  0  0  0  0  0  0  0  0  0
    9.1269   -6.8438    0.0000 C   0  0  2  0  0  0  0  0  0  0  0  0
    8.7470   -7.5762    0.0000 C   0  0  1  0  0  0  0  0  0  0  0  0
    9.1913   -8.2713    0.0000 C   0  0  1  0  0  0  0  0  0  0  0  0
    8.8114   -9.0036    0.0000 O   0  0  0  0  0  0  0  0  0  0  0  0
    7.9229   -7.6133    0.0000 O   0  0  0  0  0  0  0  0  0  0  0  0
    8.6826   -6.1487    0.0000 O   0  0  0  0  0  0  0  0  0  0  0  0
  1  2  1  0  0  0  0
  2  3  1  0  0  0  0
  3  4  1  0  0  0  0
  4  5  1  0  0  0  0
  6  5  1  6  0  0  0
  6  7  1  0  0  0  0
  7  8  1  0  0  0  0
  8  9  1  0  0  0  0
  9 10  1  0  0  0  0
 10 11  1  0  0  0  0
 11 12  1  0  0  0  0
 12 13  1  0  0  0  0
 13 14  1  0  0  0  0
 14 15  1  0  0  0  0
 15 16  1  0  0  0  0
 16 17  1  0  0  0  0
 17 18  1  0  0  0  0
 18 19  2  0  0  0  0
 19 20  1  0  0  0  0
  1 20  1  0  0  0  0
  1 12  1  0  0  0  0
 13 18  1  0  0  0  0
  2  9  1  0  0  0  0
  4  8  1  0  0  0  0
 22 23  2  0  0  0  0
 23 24  1  0  0  0  0
 24 25  1  0  0  0  0
 21 25  1  0  0  0  0
  6 21  1  0  0  0  0
  6 22  1  0  0  0  0
 13 26  1  1  0  0  0
  9 27  1  1  0  0  0
  7 28  1  6  0  0  0
 24 29  1  6  0  0  0
 16 35  1  1  0  0  0
  1 30  1  1  0  0  0
  2 31  1  6  0  0  0
  4 32  1  6  0  0  0
  8 33  1  6  0  0  0
 12 34  1  6  0  0  0
 14 36  1  1  0  0  0
 28 37  1  0  0  0  0
 22 38  1  6  0  0  0
 23 39  1  6  0  0  0
 40 39  1  1  0  0  0
 40 41  1  0  0  0  0
 41 42  1  0  0  0  0
 42 43  1  0  0  0  0
 43 44  1  0  0  0  0
 44 45  1  0  0  0  0
 45 40  1  0  0  0  0
 45 46  1  6  0  0  0
 44 47  1  1  0  0  0
 43 48  1  1  0  0  0
 42 49  1  1  0  0  0
 50 36  1  1  0  0  0
 50 51  1  0  0  0  0
 51 52  1  0  0  0  0
 52 53  1  0  0  0  0
 53 54  1  0  0  0  0
 54 55  1  0  0  0  0
 55 50  1  0  0  0  0
 52 56  1  1  0  0  0
 54 57  1  1  0  0  0
 55 58  1  6  0  0  0
 53 59  1  6  0  0  0
 56 60  1  0  0  0  0
 61 58  1  1  0  0  0
 61 62  1  0  0  0  0
 62 63  1  0  0  0  0
 63 64  1  0  0  0  0
 64 65  1  0  0  0  0
 65 66  1  0  0  0  0
 66 61  1  0  0  0  0
 64 67  1  1  0  0  0
 63 68  1  6  0  0  0
 65 69  1  6  0  0  0
 66 70  1  6  0  0  0
 71 57  1  1  0  0  0
 71 72  1  0  0  0  0
 72 73  1  0  0  0  0
 73 74  1  0  0  0  0
 74 75  1  0  0  0  0
 75 76  1  0  0  0  0
 76 71  1  0  0  0  0
 76 77  1  6  0  0  0
 75 78  1  1  0  0  0
 74 79  1  6  0  0  0
M  END
>  <cdx:fragmentId>
198565

$$$$
