99301.cdx
  Mrv1902 05222410232D          

 78 87  0  0  0  0            999 V2000
   15.0940  -11.5494    0.0000 C   0  0  1  0  0  0  0  0  0  0  0  0
   15.8084  -11.1369    0.0000 C   0  0  2  0  0  0  0  0  0  0  0  0
   16.5930  -11.3919    0.0000 C   0  0  0  0  0  0  0  0  0  0  0  0
   17.0780  -10.7244    0.0000 C   0  0  2  0  0  0  0  0  0  0  0  0
   17.8626  -10.4695    0.0000 O   0  0  0  0  0  0  0  0  0  0  0  0
   17.8626   -9.6445    0.0000 C   0  0  2  0  0  0  0  0  0  0  0  0
   17.0780   -9.3895    0.0000 C   0  0  2  0  0  0  0  0  0  0  0  0
   16.5930  -10.0570    0.0000 C   0  0  2  0  0  0  0  0  0  0  0  0
   15.8084  -10.3119    0.0000 C   0  0  1  0  0  0  0  0  0  0  0  0
   15.0940   -9.8994    0.0000 C   0  0  0  0  0  0  0  0  0  0  0  0
   14.3795  -10.3119    0.0000 C   0  0  0  0  0  0  0  0  0  0  0  0
   14.3795  -11.1369    0.0000 C   0  0  2  0  0  0  0  0  0  0  0  0
   13.6650  -11.5494    0.0000 C   0  0  1  0  0  0  0  0  0  0  0  0
   12.9505  -11.1369    0.0000 C   0  0  1  0  0  0  0  0  0  0  0  0
   12.2361  -11.5494    0.0000 C   0  0  0  0  0  0  0  0  0  0  0  0
   12.2361  -12.3744    0.0000 C   0  0  1  0  0  0  0  0  0  0  0  0
   12.9505  -12.7869    0.0000 C   0  0  0  0  0  0  0  0  0  0  0  0
   13.6650  -12.3744    0.0000 C   0  0  0  0  0  0  0  0  0  0  0  0
   14.3795  -12.7869    0.0000 C   0  0  0  0  0  0  0  0  0  0  0  0
   15.0940  -12.3744    0.0000 C   0  0  0  0  0  0  0  0  0  0  0  0
   17.7764   -8.8240    0.0000 O   0  0  0  0  0  0  0  0  0  0  0  0
   18.6163   -9.9800    0.0000 C   0  0  2  0  0  0  0  0  0  0  0  0
   19.2837   -9.4951    0.0000 C   0  0  2  0  0  0  0  0  0  0  0  0
   19.1975   -8.6746    0.0000 C   0  0  0  0  0  0  0  0  0  0  0  0
   18.4438   -8.3391    0.0000 C   0  0  0  0  0  0  0  0  0  0  0  0
   13.6650  -10.7244    0.0000 C   0  0  0  0  0  0  0  0  0  0  0  0
   15.8084   -9.4869    0.0000 C   0  0  0  0  0  0  0  0  0  0  0  0
   16.8230   -8.6049    0.0000 C   0  0  0  0  0  0  0  0  0  0  0  0
   19.8649   -8.1897    0.0000 C   0  0  0  0  0  0  0  0  0  0  0  0
   15.0940  -10.7244    0.0000 H   0  0  0  0  0  0  0  0  0  0  0  0
   15.8084  -11.9619    0.0000 H   0  0  0  0  0  0  0  0  0  0  0  0
   17.5629  -11.3919    0.0000 H   0  0  0  0  0  0  0  0  0  0  0  0
   16.2314   -9.3155    0.0000 H   0  0  0  0  0  0  0  0  0  0  0  0
   14.3795  -11.9619    0.0000 H   0  0  0  0  0  0  0  0  0  0  0  0
   11.5216  -12.7869    0.0000 O   0  0  0  0  0  0  0  0  0  0  0  0
   12.9505  -10.3119    0.0000 O   0  0  0  0  0  0  0  0  0  0  0  0
   12.5407   -9.5959    0.0000 C   0  0  2  0  0  0  0  0  0  0  0  0
   12.9558   -8.8830    0.0000 O   0  0  0  0  0  0  0  0  0  0  0  0
   12.5460   -8.1670    0.0000 C   0  0  1  0  0  0  0  0  0  0  0  0
   11.7210   -8.1640    0.0000 C   0  0  2  0  0  0  0  0  0  0  0  0
   11.3058   -8.8769    0.0000 C   0  0  1  0  0  0  0  0  0  0  0  0
   11.7157   -9.5929    0.0000 C   0  0  1  0  0  0  0  0  0  0  0  0
   12.9611   -7.4541    0.0000 C   0  0  0  0  0  0  0  0  0  0  0  0
   10.4808   -8.8739    0.0000 O   0  0  0  0  0  0  0  0  0  0  0  0
   11.3006  -10.3058    0.0000 O   0  0  0  0  0  0  0  0  0  0  0  0
   11.3111   -7.4480    0.0000 O   0  0  0  0  0  0  0  0  0  0  0  0
   12.5512   -6.7381    0.0000 O   0  0  0  0  0  0  0  0  0  0  0  0
   10.5843  -10.7152    0.0000 C   0  0  2  0  0  0  0  0  0  0  0  0
    9.8675  -10.3068    0.0000 O   0  0  0  0  0  0  0  0  0  0  0  0
    9.1439  -10.7022    0.0000 C   0  0  2  0  0  0  0  0  0  0  0  0
    9.1370  -11.5062    0.0000 C   0  0  1  0  0  0  0  0  0  0  0  0
    9.8538  -11.9146    0.0000 C   0  0  2  0  0  0  0  0  0  0  0  0
   10.5774  -11.5192    0.0000 C   0  0  1  0  0  0  0  0  0  0  0  0
    8.4220  -11.9176    0.0000 O   0  0  0  0  0  0  0  0  0  0  0  0
    8.4361  -10.2784    0.0000 C   0  0  0  0  0  0  0  0  0  0  0  0
    9.8465  -12.7396    0.0000 O   0  0  0  0  0  0  0  0  0  0  0  0
   11.2852  -11.9430    0.0000 O   0  0  0  0  0  0  0  0  0  0  0  0
   18.7025  -10.8005    0.0000 O   0  0  0  0  0  0  0  0  0  0  0  0
   20.0374   -9.8307    0.0000 O   0  0  0  0  0  0  0  0  0  0  0  0
   10.0710   -8.1579    0.0000 C   0  0  2  0  0  0  0  0  0  0  0  0
   10.4724   -7.4371    0.0000 O   0  0  0  0  0  0  0  0  0  0  0  0
   10.0490   -6.7291    0.0000 C   0  0  0  0  0  0  0  0  0  0  0  0
    9.2241   -6.7418    0.0000 C   0  0  2  0  0  0  0  0  0  0  0  0
    8.8226   -7.4625    0.0000 C   0  0  1  0  0  0  0  0  0  0  0  0
    9.2461   -8.1706    0.0000 C   0  0  1  0  0  0  0  0  0  0  0  0
    8.8446   -8.8913    0.0000 O   0  0  0  0  0  0  0  0  0  0  0  0
    7.9977   -7.4752    0.0000 O   0  0  0  0  0  0  0  0  0  0  0  0
    8.8006   -6.0338    0.0000 O   0  0  0  0  0  0  0  0  0  0  0  0
   20.4334  -10.5544    0.0000 C   0  0  2  0  0  0  0  0  0  0  0  0
   20.0047  -11.2592    0.0000 O   0  0  0  0  0  0  0  0  0  0  0  0
   20.4008  -11.9830    0.0000 C   0  0  1  0  0  0  0  0  0  0  0  0
   21.2256  -12.0018    0.0000 C   0  0  1  0  0  0  0  0  0  0  0  0
   21.6543  -11.2970    0.0000 C   0  0  1  0  0  0  0  0  0  0  0  0
   21.2582  -10.5733    0.0000 C   0  0  1  0  0  0  0  0  0  0  0  0
   21.6869   -9.8684    0.0000 O   0  0  0  0  0  0  0  0  0  0  0  0
   22.4791  -11.3158    0.0000 O   0  0  0  0  0  0  0  0  0  0  0  0
   21.6216  -12.7255    0.0000 O   0  0  0  0  0  0  0  0  0  0  0  0
   19.9720  -12.6878    0.0000 C   0  0  0  0  0  0  0  0  0  0  0  0
  1  2  1  0  0  0  0
  2  3  1  0  0  0  0
  3  4  1  0  0  0  0
  4  5  1  0  0  0  0
  6  5  1  6  0  0  0
  6  7  1  0  0  0  0
  7  8  1  0  0  0  0
  8  9  1  0  0  0  0
  9 10  1  0  0  0  0
 10 11  1  0  0  0  0
 11 12  1  0  0  0  0
 12 13  1  0  0  0  0
 13 14  1  0  0  0  0
 14 15  1  0  0  0  0
 15 16  1  0  0  0  0
 16 17  1  0  0  0  0
 17 18  1  0  0  0  0
 18 19  2  0  0  0  0
 19 20  1  0  0  0  0
  1 20  1  0  0  0  0
  1 12  1  0  0  0  0
 13 18  1  0  0  0  0
  2  9  1  0  0  0  0
  4  8  1  0  0  0  0
 22 23  1  0  0  0  0
 23 24  1  0  0  0  0
 24 25  1  0  0  0  0
 21 25  1  0  0  0  0
  6 21  1  0  0  0  0
  6 22  1  0  0  0  0
 13 26  1  1  0  0  0
  9 27  1  1  0  0  0
  7 28  1  6  0  0  0
 24 29  2  0  0  0  0
 16 35  1  1  0  0  0
  1 30  1  1  0  0  0
  2 31  1  6  0  0  0
  4 32  1  6  0  0  0
  8 33  1  6  0  0  0
 12 34  1  6  0  0  0
 14 36  1  1  0  0  0
 37 36  1  1  0  0  0
 37 38  1  0  0  0  0
 38 39  1  0  0  0  0
 39 40  1  0  0  0  0
 40 41  1  0  0  0  0
 41 42  1  0  0  0  0
 42 37  1  0  0  0  0
 39 43  1  1  0  0  0
 41 44  1  1  0  0  0
 42 45  1  6  0  0  0
 40 46  1  6  0  0  0
 43 47  1  0  0  0  0
 48 45  1  1  0  0  0
 48 49  1  0  0  0  0
 49 50  1  0  0  0  0
 50 51  1  0  0  0  0
 51 52  1  0  0  0  0
 52 53  1  0  0  0  0
 53 48  1  0  0  0  0
 51 54  1  1  0  0  0
 50 55  1  6  0  0  0
 52 56  1  6  0  0  0
 53 57  1  6  0  0  0
 22 58  1  6  0  0  0
 23 59  1  6  0  0  0
 60 44  1  1  0  0  0
 60 61  1  0  0  0  0
 61 62  1  0  0  0  0
 62 63  1  0  0  0  0
 63 64  1  0  0  0  0
 64 65  1  0  0  0  0
 65 60  1  0  0  0  0
 65 66  1  6  0  0  0
 64 67  1  1  0  0  0
 63 68  1  6  0  0  0
 69 59  1  1  0  0  0
 69 70  1  0  0  0  0
 70 71  1  0  0  0  0
 71 72  1  0  0  0  0
 72 73  1  0  0  0  0
 73 74  1  0  0  0  0
 74 69  1  0  0  0  0
 74 75  1  6  0  0  0
 73 76  1  1  0  0  0
 72 77  1  1  0  0  0
 71 78  1  1  0  0  0
M  END
>  <cdx:fragmentId>
198565

$$$$
