99308.cdx
  Mrv1902 05222410252D          

 17 17  0  0  0  0            999 V2000
    6.1489   -8.4480    0.0000 C   0  0  0  0  0  0  0  0  0  0  0  0
    6.4147   -9.2290    0.0000 C   0  0  0  0  0  0  0  0  0  0  0  0
    7.2396   -9.2175    0.0000 C   0  0  0  0  0  0  0  0  0  0  0  0
    7.4836   -8.4294    0.0000 C   0  0  0  0  0  0  0  0  0  0  0  0
    6.8095   -7.9539    0.0000 N   0  0  0  0  0  0  0  0  0  0  0  0
    5.3608   -8.2041    0.0000 C   0  0  0  0  0  0  0  0  0  0  0  0
    4.7554   -8.7646    0.0000 O   0  0  0  0  0  0  0  0  0  0  0  0
    8.2646   -8.1636    0.0000 C   0  0  0  0  0  0  0  0  0  0  0  0
    8.8853   -8.7070    0.0000 O   0  0  0  0  0  0  0  0  0  0  0  0
    9.6663   -8.4412    0.0000 C   0  0  0  0  0  0  0  0  0  0  0  0
   10.2870   -8.9846    0.0000 C   0  0  0  0  0  0  0  0  0  0  0  0
    6.0999   -6.6893    0.0000 C   0  0  0  0  0  0  0  0  0  0  0  0
    6.1019   -5.8643    0.0000 C   0  0  0  0  0  0  0  0  0  0  0  0
    5.3885   -5.4500    0.0000 C   0  0  0  0  0  0  0  0  0  0  0  0
    5.3905   -4.6250    0.0000 O   0  0  0  0  0  0  0  0  0  0  0  0
    4.6730   -5.8608    0.0000 O   0  0  0  0  0  0  0  0  0  0  0  0
    6.7980   -7.1289    0.0000 C   0  0  0  0  0  0  0  0  0  0  0  0
  1  2  2  0  0  0  0
  2  3  1  0  0  0  0
  3  4  2  0  0  0  0
  4  5  1  0  0  0  0
  5  1  1  0  0  0  0
  1  6  1  0  0  0  0
  6  7  2  0  0  0  0
  4  8  1  0  0  0  0
  8  9  1  0  0  0  0
  9 10  1  0  0  0  0
 10 11  1  0  0  0  0
  5 17  1  0  0  0  0
 12 13  1  0  0  0  0
 13 14  1  0  0  0  0
 14 15  1  0  0  0  0
 17 12  1  0  0  0  0
 14 16  2  0  0  0  0
M  END
>  <cdx:fragmentId>
5

$$$$
