99316.cdx
  Mrv1902 05222410222D          

 54 61  0  0  0  0            999 V2000
    6.3713   -7.7734    0.0000 C   0  0  2  0  0  0  0  0  0  0  0  0
    6.7314   -8.5157    0.0000 C   0  0  1  0  0  0  0  0  0  0  0  0
    6.3756   -9.2600    0.0000 C   0  0  1  0  0  0  0  0  0  0  0  0
    5.5718   -9.4460    0.0000 C   0  0  1  0  0  0  0  0  0  0  0  0
    4.9253   -8.9335    0.0000 C   0  0  1  0  0  0  0  0  0  0  0  0
    4.9229   -8.1085    0.0000 C   0  0  2  0  0  0  0  0  0  0  0  0
    5.5664   -7.5922    0.0000 C   0  0  2  0  0  0  0  0  0  0  0  0
    4.2121   -9.3480    0.0000 C   0  0  2  0  0  0  0  0  0  0  0  0
    3.4964   -8.9376    0.0000 C   0  0  1  0  0  0  0  0  0  0  0  0
    3.4940   -8.1126    0.0000 C   0  0  0  0  0  0  0  0  0  0  0  0
    4.2072   -7.6980    0.0000 C   0  0  2  0  0  0  0  0  0  0  0  0
    5.4901   -6.7707    0.0000 C   0  0  0  0  0  0  0  0  0  0  0  0
    6.2477   -6.4443    0.0000 C   0  0  1  0  0  0  0  0  0  0  0  0
    6.7923   -7.0640    0.0000 C   0  0  2  0  0  0  0  0  0  0  0  0
    4.2048   -6.8731    0.0000 O   0  0  0  0  0  0  0  0  0  0  0  0
    3.4937   -6.4549    0.0000 C   0  0  0  0  0  0  0  0  0  0  0  0
    4.2145  -10.1730    0.0000 C   0  0  0  0  0  0  0  0  0  0  0  0
    3.5012  -10.5876    0.0000 O   0  0  0  0  0  0  0  0  0  0  0  0
    3.5036  -11.4126    0.0000 C   0  0  0  0  0  0  0  0  0  0  0  0
    4.9225   -7.4525    0.0000 C   0  0  0  0  0  0  0  0  0  0  0  0
    4.2075   -8.4700    0.0000 N   0  0  0  0  0  0  0  0  0  0  0  0
    3.4925   -9.6525    0.0000 C   0  0  0  0  0  0  0  0  0  0  0  0
    7.5300   -8.3085    0.0000 C   0  0  2  0  0  0  0  0  0  0  0  0
    7.5075   -6.6000    0.0000 C   0  0  2  0  0  0  0  0  0  0  0  0
    6.9449   -9.3126    0.0000 O   0  0  0  0  0  0  0  0  0  0  0  0
    8.1125   -7.0125    0.0000 O   0  0  0  0  0  0  0  0  0  0  0  0
    4.9187   -9.7584    0.0000 H   0  0  0  0  0  0  0  0  0  0  0  0
    4.9831   -7.0088    0.0000 H   0  0  0  0  0  0  0  0  0  0  0  0
    7.1962   -7.7800    0.0000 H   0  0  0  0  0  0  0  0  0  0  0  0
    6.2477   -5.6193    0.0000 O   0  0  0  0  0  0  0  0  0  0  0  0
    6.3756  -10.0850    0.0000 H   0  0  0  0  0  0  0  0  0  0  0  0
    3.0250   -8.4700    0.0000 C   0  0  0  0  0  0  0  0  0  0  0  0
    5.5718  -10.2710    0.0000 O   0  0  0  0  0  0  0  0  0  0  0  0
    4.8574  -10.6835    0.0000 C   0  0  0  0  0  0  0  0  0  0  0  0
    8.8270   -7.4250    0.0000 C   0  0  0  0  0  0  0  0  0  0  0  0
    9.5414   -7.0125    0.0000 C   0  0  0  0  0  0  0  0  0  0  0  0
    8.8270   -8.2500    0.0000 O   0  0  0  0  0  0  0  0  0  0  0  0
   10.2559   -7.4250    0.0000 C   0  0  0  0  0  0  0  0  0  0  0  0
   10.9704   -7.0125    0.0000 C   0  0  0  0  0  0  0  0  0  0  0  0
   10.9704   -6.1875    0.0000 C   0  0  0  0  0  0  0  0  0  0  0  0
   10.2559   -5.7750    0.0000 C   0  0  0  0  0  0  0  0  0  0  0  0
    9.5414   -6.1875    0.0000 C   0  0  0  0  0  0  0  0  0  0  0  0
    8.3268   -8.5221    0.0000 O   0  0  0  0  0  0  0  0  0  0  0  0
    7.7372   -9.5217    0.0000 C   0  0  0  0  0  0  0  0  0  0  0  0
    7.9507  -10.3186    0.0000 C   0  0  0  0  0  0  0  0  0  0  0  0
    8.3206   -8.9383    0.0000 O   0  0  0  0  0  0  0  0  0  0  0  0
    2.7831   -9.3522    0.0000 O   0  0  0  0  0  0  0  0  0  0  0  0
    8.1220   -6.0495    0.0000 O   0  0  0  0  0  0  0  0  0  0  0  0
    8.1220   -5.2245    0.0000 C   0  0  0  0  0  0  0  0  0  0  0  0
    7.3674  -10.9019    0.0000 C   0  0  0  0  0  0  0  0  0  0  0  0
    7.5809  -11.6988    0.0000 C   0  0  0  0  0  0  0  0  0  0  0  0
    8.3778  -11.9123    0.0000 C   0  0  0  0  0  0  0  0  0  0  0  0
    8.9611  -11.3290    0.0000 C   0  0  0  0  0  0  0  0  0  0  0  0
    8.7476  -10.5321    0.0000 C   0  0  0  0  0  0  0  0  0  0  0  0
  1  2  1  0  0  0  0
  2  3  1  0  0  0  0
  3  4  1  0  0  0  0
  4  5  1  0  0  0  0
  5  6  1  0  0  0  0
  6  7  1  0  0  0  0
  7  1  1  0  0  0  0
  5  8  1  0  0  0  0
  8  9  1  0  0  0  0
  9 10  1  0  0  0  0
 10 11  1  0  0  0  0
  6 11  1  1  0  0  0
  7 12  1  0  0  0  0
 12 13  1  0  0  0  0
 13 14  1  0  0  0  0
 14  1  1  0  0  0  0
 11 15  1  6  0  0  0
 15 16  1  0  0  0  0
  8 17  1  1  0  0  0
 17 18  1  0  0  0  0
 18 19  1  0  0  0  0
  6 20  1  0  0  0  0
  3 20  1  0  0  0  0
 20 21  1  0  0  0  0
 21 22  1  0  0  0  0
  8 22  1  0  0  0  0
  2 23  1  0  0  0  0
 13 24  1  0  0  0  0
 24 23  1  0  0  0  0
  2 25  1  1  0  0  0
 14 26  1  6  0  0  0
  5 27  1  1  0  0  0
  7 28  1  1  0  0  0
  1 29  1  1  0  0  0
 13 30  1  1  0  0  0
  3 31  1  6  0  0  0
 21 32  1  0  0  0  0
  4 33  1  6  0  0  0
 33 34  1  0  0  0  0
 26 35  1  0  0  0  0
 35 36  1  0  0  0  0
 35 37  2  0  0  0  0
 36 38  2  0  0  0  0
 38 39  1  0  0  0  0
 39 40  2  0  0  0  0
 40 41  1  0  0  0  0
 41 42  2  0  0  0  0
 42 36  1  0  0  0  0
 23 43  1  6  0  0  0
 44 45  1  0  0  0  0
 44 46  2  0  0  0  0
 25 44  1  0  0  0  0
  9 47  1  6  0  0  0
 24 48  1  1  0  0  0
 48 49  1  0  0  0  0
 45 50  2  0  0  0  0
 50 51  1  0  0  0  0
 51 52  2  0  0  0  0
 52 53  1  0  0  0  0
 53 54  2  0  0  0  0
 54 45  1  0  0  0  0
M  END
>  <cdx:fragmentId>
491

$$$$
