99328.cdx
  Mrv1902 05222410222D          

 11 11  0  0  0  0            999 V2000
    5.8212   -7.0675    0.0000 C   0  0  0  0  0  0  0  0  0  0  0  0
    5.8212   -7.8925    0.0000 C   0  0  0  0  0  0  0  0  0  0  0  0
    6.5356   -8.3050    0.0000 C   0  0  0  0  0  0  0  0  0  0  0  0
    7.2501   -7.8925    0.0000 C   0  0  1  0  0  0  0  0  0  0  0  0
    7.2501   -7.0675    0.0000 C   0  0  0  0  0  0  0  0  0  0  0  0
    6.5356   -6.6550    0.0000 C   0  0  0  0  0  0  0  0  0  0  0  0
    5.1067   -6.6550    0.0000 O   0  0  0  0  0  0  0  0  0  0  0  0
    5.1067   -8.3050    0.0000 C   0  0  0  0  0  0  0  0  0  0  0  0
    6.1231   -5.9405    0.0000 C   0  0  0  0  0  0  0  0  0  0  0  0
    6.9481   -5.9405    0.0000 C   0  0  0  0  0  0  0  0  0  0  0  0
    7.9646   -8.3050    0.0000 O   0  0  0  0  0  0  0  0  0  0  0  0
  1  2  1  0  0  0  0
  2  3  2  0  0  0  0
  3  4  1  0  0  0  0
  4  5  1  0  0  0  0
  5  6  1  0  0  0  0
  6  1  1  0  0  0  0
  1  7  2  0  0  0  0
  2  8  1  0  0  0  0
  6  9  1  0  0  0  0
  6 10  1  0  0  0  0
  4 11  1  1  0  0  0
M  END
>  <cdx:fragmentId>
5

$$$$
