99327.cdx
  Mrv1902 05222410242D          

 33 35  0  0  0  0            999 V2000
    9.3245   -8.3488    0.0000 C   0  0  0  0  0  0  0  0  0  0  0  0
    9.3245   -9.1738    0.0000 C   0  0  0  0  0  0  0  0  0  0  0  0
   10.0389   -9.5863    0.0000 C   0  0  0  0  0  0  0  0  0  0  0  0
   10.7534   -9.1738    0.0000 C   0  0  0  0  0  0  0  0  0  0  0  0
   10.7534   -8.3488    0.0000 C   0  0  0  0  0  0  0  0  0  0  0  0
   10.0389   -7.9363    0.0000 C   0  0  0  0  0  0  0  0  0  0  0  0
   11.4679   -7.9363    0.0000 O   0  0  0  0  0  0  0  0  0  0  0  0
   12.1823   -8.3488    0.0000 C   0  0  0  0  0  0  0  0  0  0  0  0
   11.4679   -9.5863    0.0000 O   0  0  0  0  0  0  0  0  0  0  0  0
   12.1823   -9.1738    0.0000 C   0  0  0  0  0  0  0  0  0  0  0  0
   10.0389  -10.4113    0.0000 O   0  0  0  0  0  0  0  0  0  0  0  0
   10.7534  -10.8238    0.0000 C   0  0  0  0  0  0  0  0  0  0  0  0
    8.6100   -7.9363    0.0000 O   0  0  0  0  0  0  0  0  0  0  0  0
    7.8955   -8.3488    0.0000 C   0  0  1  0  0  0  0  0  0  0  0  0
    7.8955   -9.1738    0.0000 C   0  0  2  0  0  0  0  0  0  0  0  0
    8.6100   -9.5863    0.0000 O   0  0  0  0  0  0  0  0  0  0  0  0
    7.1810   -9.5863    0.0000 C   0  0  1  0  0  0  0  0  0  0  0  0
    7.1810  -10.4113    0.0000 O   0  0  0  0  0  0  0  0  0  0  0  0
    6.4666   -9.1738    0.0000 C   0  0  2  0  0  0  0  0  0  0  0  0
    5.7521   -9.5863    0.0000 O   0  0  0  0  0  0  0  0  0  0  0  0
    6.4666   -8.3488    0.0000 C   0  0  2  0  0  0  0  0  0  0  0  0
    7.1810   -7.9363    0.0000 O   0  0  0  0  0  0  0  0  0  0  0  0
    5.7521   -7.9363    0.0000 C   0  0  0  0  0  0  0  0  0  0  0  0
    5.0376   -8.3488    0.0000 O   0  0  0  0  0  0  0  0  0  0  0  0
    3.5834   -6.7885    0.0000 C   0  0  0  0  0  0  0  0  0  0  0  0
    3.1030   -7.4592    0.0000 C   0  0  2  0  0  0  0  0  0  0  0  0
    3.5924   -8.1233    0.0000 C   0  0  2  0  0  0  0  0  0  0  0  0
    4.3753   -7.8631    0.0000 C   0  0  1  0  0  0  0  0  0  0  0  0
    4.3697   -7.0381    0.0000 O   0  0  0  0  0  0  0  0  0  0  0  0
    3.3428   -8.9096    0.0000 O   0  0  0  0  0  0  0  0  0  0  0  0
    2.4654   -7.9827    0.0000 O   0  0  0  0  0  0  0  0  0  0  0  0
    2.3308   -7.1688    0.0000 C   0  0  0  0  0  0  0  0  0  0  0  0
    2.1962   -6.3548    0.0000 O   0  0  0  0  0  0  0  0  0  0  0  0
  1  2  1  0  0  0  0
  2  3  2  0  0  0  0
  3  4  1  0  0  0  0
  4  5  2  0  0  0  0
  5  6  1  0  0  0  0
  1  6  2  0  0  0  0
  7  8  1  0  0  0  0
  5  7  1  0  0  0  0
  9 10  1  0  0  0  0
  4  9  1  0  0  0  0
 11 12  1  0  0  0  0
  3 11  1  0  0  0  0
 14 13  1  1  0  0  0
 14 15  1  0  0  0  0
 15 16  1  6  0  0  0
 15 17  1  0  0  0  0
 17 18  1  1  0  0  0
 17 19  1  0  0  0  0
 19 20  1  6  0  0  0
 19 21  1  0  0  0  0
 21 22  1  0  0  0  0
 21 23  1  1  0  0  0
 23 24  1  0  0  0  0
 14 22  1  0  0  0  0
  1 13  1  0  0  0  0
 25 26  1  0  0  0  0
 26 27  1  0  0  0  0
 27 28  1  0  0  0  0
 28 29  1  0  0  0  0
 29 25  1  0  0  0  0
 27 30  1  6  0  0  0
 26 31  1  6  0  0  0
 26 32  1  0  0  0  0
 32 33  1  0  0  0  0
 28 24  1  1  0  0  0
M  END
>  <cdx:fragmentId>
27

$$$$
