99320.cdx
  Mrv1902 05222410252D          

 54 59  0  0  0  0            999 V2000
    7.3926   -7.6948    0.0000 C   0  0  2  0  0  0  0  0  0  0  0  0
    8.1075   -8.1066    0.0000 C   0  0  1  0  0  0  0  0  0  0  0  0
    8.8216   -7.6935    0.0000 C   0  0  1  0  0  0  0  0  0  0  0  0
    8.8209   -6.8685    0.0000 C   0  0  2  0  0  0  0  0  0  0  0  0
    8.1061   -6.4566    0.0000 C   0  0  1  0  0  0  0  0  0  0  0  0
    7.3919   -6.8698    0.0000 O   0  0  0  0  0  0  0  0  0  0  0  0
    6.6785   -8.1079    0.0000 C   0  0  0  0  0  0  0  0  0  0  0  0
    9.5364   -8.1054    0.0000 O   0  0  0  0  0  0  0  0  0  0  0  0
    8.1053   -5.6316    0.0000 O   0  0  0  0  0  0  0  0  0  0  0  0
    8.1082   -8.9316    0.0000 O   0  0  0  0  0  0  0  0  0  0  0  0
    9.5350   -6.4554    0.0000 O   0  0  0  0  0  0  0  0  0  0  0  0
    6.6792   -8.9329    0.0000 O   0  0  0  0  0  0  0  0  0  0  0  0
    4.5415   -9.3529    0.0000 C   0  0  1  0  0  0  0  0  0  0  0  0
    4.5470  -10.1779    0.0000 C   0  0  1  0  0  0  0  0  0  0  0  0
    5.2643  -10.5856    0.0000 C   0  0  2  0  0  0  0  0  0  0  0  0
    5.9760  -10.1682    0.0000 C   0  0  2  0  0  0  0  0  0  0  0  0
    5.9704   -9.3432    0.0000 C   0  0  1  0  0  0  0  0  0  0  0  0
    5.2531   -8.9356    0.0000 O   0  0  0  0  0  0  0  0  0  0  0  0
    3.8354  -10.5952    0.0000 O   0  0  0  0  0  0  0  0  0  0  0  0
    3.8242   -8.9453    0.0000 C   0  0  0  0  0  0  0  0  0  0  0  0
    5.2699  -11.4105    0.0000 O   0  0  0  0  0  0  0  0  0  0  0  0
    6.6932  -10.5759    0.0000 O   0  0  0  0  0  0  0  0  0  0  0  0
    5.9471  -11.8134    0.0000 C   0  0  0  0  0  0  0  0  0  0  0  0
    5.9478  -12.6384    0.0000 C   0  0  0  0  0  0  0  0  0  0  0  0
    6.6627  -13.0503    0.0000 C   0  0  0  0  0  0  0  0  0  0  0  0
    7.3768  -12.6371    0.0000 C   0  0  0  0  0  0  0  0  0  0  0  0
    7.3761  -11.8121    0.0000 C   0  0  0  0  0  0  0  0  0  0  0  0
    6.6612  -11.4003    0.0000 C   0  0  0  0  0  0  0  0  0  0  0  0
    8.0902  -11.3990    0.0000 O   0  0  0  0  0  0  0  0  0  0  0  0
    8.8903  -11.8610    0.0000 C   0  0  0  0  0  0  0  0  0  0  0  0
    6.6634  -13.8753    0.0000 O   0  0  0  0  0  0  0  0  0  0  0  0
    7.4693  -14.3406    0.0000 C   0  0  0  0  0  0  0  0  0  0  0  0
    8.0916  -13.0490    0.0000 O   0  0  0  0  0  0  0  0  0  0  0  0
    8.1161   -3.9792    0.0000 C   0  0  0  0  0  0  0  0  0  0  0  0
    8.1161   -3.1542    0.0000 C   0  0  0  0  0  0  0  0  0  0  0  0
    8.8306   -2.7417    0.0000 C   0  0  0  0  0  0  0  0  0  0  0  0
    9.5450   -3.1542    0.0000 C   0  0  0  0  0  0  0  0  0  0  0  0
    9.5450   -3.9792    0.0000 C   0  0  0  0  0  0  0  0  0  0  0  0
    8.8306   -4.3917    0.0000 C   0  0  0  0  0  0  0  0  0  0  0  0
   10.2595   -2.7417    0.0000 O   0  0  0  0  0  0  0  0  0  0  0  0
    8.8306   -1.9167    0.0000 O   0  0  0  0  0  0  0  0  0  0  0  0
    5.2582   -6.4542    0.0000 O   0  0  0  0  0  0  0  0  0  0  0  0
    3.8293   -3.9792    0.0000 O   0  0  0  0  0  0  0  0  0  0  0  0
    6.6872   -6.4542    0.0000 O   0  0  0  0  0  0  0  0  0  0  0  0
    6.6872   -3.9792    0.0000 O   0  0  0  0  0  0  0  0  0  0  0  0
    5.9727   -4.3917    0.0000 C   0  0  0  0  0  0  0  0  0  0  0  0
    5.2582   -3.9792    0.0000 C   0  0  0  0  0  0  0  0  0  0  0  0
    4.5438   -4.3917    0.0000 C   0  0  0  0  0  0  0  0  0  0  0  0
    4.5438   -5.2167    0.0000 C   0  0  0  0  0  0  0  0  0  0  0  0
    5.2582   -5.6292    0.0000 C   0  0  0  0  0  0  0  0  0  0  0  0
    5.9727   -5.2167    0.0000 C   0  0  0  0  0  0  0  0  0  0  0  0
    6.6872   -5.6292    0.0000 C   0  0  0  0  0  0  0  0  0  0  0  0
    7.4016   -5.2167    0.0000 C   0  0  0  0  0  0  0  0  0  0  0  0
    7.4016   -4.3917    0.0000 C   0  0  0  0  0  0  0  0  0  0  0  0
  1  2  1  0  0  0  0
  2  3  1  0  0  0  0
  3  4  1  0  0  0  0
  4  5  1  0  0  0  0
  5  6  1  0  0  0  0
  6  1  1  0  0  0  0
  1  7  1  1  0  0  0
  3  8  1  1  0  0  0
  5  9  1  1  0  0  0
  2 10  1  1  0  0  0
  4 11  1  6  0  0  0
  7 12  1  0  0  0  0
 13 14  1  0  0  0  0
 14 15  1  0  0  0  0
 15 16  1  0  0  0  0
 16 17  1  0  0  0  0
 17 18  1  0  0  0  0
 18 13  1  0  0  0  0
 14 19  1  1  0  0  0
 13 20  1  6  0  0  0
 15 21  1  6  0  0  0
 16 22  1  6  0  0  0
 17 12  1  1  0  0  0
 23 24  1  0  0  0  0
 24 25  2  0  0  0  0
 25 26  1  0  0  0  0
 26 27  2  0  0  0  0
 27 28  1  0  0  0  0
 23 28  2  0  0  0  0
 29 30  1  0  0  0  0
 27 29  1  0  0  0  0
 31 32  1  0  0  0  0
 25 31  1  0  0  0  0
 26 33  1  0  0  0  0
 23 21  1  0  0  0  0
 54 34  1  0  0  0  0
 50 42  1  0  0  0  0
 48 43  1  0  0  0  0
 52 44  2  0  0  0  0
 54 45  1  0  0  0  0
 46 45  1  0  0  0  0
 51 46  2  0  0  0  0
 47 46  1  0  0  0  0
 48 47  2  0  0  0  0
 49 48  1  0  0  0  0
 50 49  2  0  0  0  0
 51 50  1  0  0  0  0
 52 51  1  0  0  0  0
 53 52  1  0  0  0  0
 54 53  2  0  0  0  0
 34 35  1  0  0  0  0
 35 36  2  0  0  0  0
 36 37  1  0  0  0  0
 37 38  2  0  0  0  0
 38 39  1  0  0  0  0
 34 39  2  0  0  0  0
 37 40  1  0  0  0  0
 36 41  1  0  0  0  0
 53  9  1  0  0  0  0
M  END
>  <cdx:fragmentId>
354

$$$$
