99326.cdx
  Mrv1902 05222410242D          

 24 25  0  0  0  0            999 V2000
    9.3391   -8.5557    0.0000 C   0  0  0  0  0  0  0  0  0  0  0  0
    8.6246   -8.9682    0.0000 C   0  0  0  0  0  0  0  0  0  0  0  0
    7.9101   -8.5557    0.0000 C   0  0  0  0  0  0  0  0  0  0  0  0
    7.9101   -7.7307    0.0000 C   0  0  2  0  0  0  0  0  0  0  0  0
    8.6246   -7.3182    0.0000 C   0  0  0  0  0  0  0  0  0  0  0  0
    9.3391   -7.7307    0.0000 C   0  0  0  0  0  0  0  0  0  0  0  0
   10.0535   -8.9682    0.0000 C   0  0  0  0  0  0  0  0  0  0  0  0
   10.0535   -9.7932    0.0000 O   0  0  0  0  0  0  0  0  0  0  0  0
   10.7680   -8.5557    0.0000 O   0  0  0  0  0  0  0  0  0  0  0  0
    9.7516   -7.0162    0.0000 C   0  0  0  0  0  0  0  0  0  0  0  0
   10.1641   -7.7307    0.0000 C   0  0  0  0  0  0  0  0  0  0  0  0
    8.6246   -9.7932    0.0000 C   0  0  0  0  0  0  0  0  0  0  0  0
    7.1956   -7.3182    0.0000 O   0  0  0  0  0  0  0  0  0  0  0  0
    6.4812   -7.7307    0.0000 C   0  0  1  0  0  0  0  0  0  0  0  0
    6.4812   -8.5557    0.0000 C   0  0  2  0  0  0  0  0  0  0  0  0
    7.1956   -8.9682    0.0000 O   0  0  0  0  0  0  0  0  0  0  0  0
    5.7667   -8.9682    0.0000 C   0  0  2  0  0  0  0  0  0  0  0  0
    5.7667   -9.7932    0.0000 O   0  0  0  0  0  0  0  0  0  0  0  0
    5.0522   -8.5557    0.0000 C   0  0  2  0  0  0  0  0  0  0  0  0
    4.3378   -8.9682    0.0000 O   0  0  0  0  0  0  0  0  0  0  0  0
    5.0522   -7.7307    0.0000 C   0  0  2  0  0  0  0  0  0  0  0  0
    5.7667   -7.3182    0.0000 O   0  0  0  0  0  0  0  0  0  0  0  0
    4.3378   -7.3182    0.0000 C   0  0  0  0  0  0  0  0  0  0  0  0
    3.6233   -7.7307    0.0000 O   0  0  0  0  0  0  0  0  0  0  0  0
  1  2  2  0  0  0  0
  2  3  1  0  0  0  0
  3  4  1  0  0  0  0
  4  5  1  0  0  0  0
  5  6  1  0  0  0  0
  1  6  1  0  0  0  0
  7  8  2  0  0  0  0
  7  9  1  0  0  0  0
  1  7  1  0  0  0  0
  6 10  1  0  0  0  0
  6 11  1  0  0  0  0
  2 12  1  0  0  0  0
 14 15  1  0  0  0  0
 15 16  1  6  0  0  0
 15 17  1  0  0  0  0
 17 18  1  6  0  0  0
 17 19  1  0  0  0  0
 19 20  1  6  0  0  0
 19 21  1  0  0  0  0
 21 22  1  0  0  0  0
 21 23  1  1  0  0  0
 23 24  1  0  0  0  0
 14 22  1  0  0  0  0
 14 13  1  1  0  0  0
  4 13  1  1  0  0  0
M  END
>  <cdx:fragmentId>
31

$$$$
