99329.cdx
  Mrv1902 05222410232D          

 18 20  0  0  0  0            999 V2000
    5.4637   -7.1225    0.0000 C   0  0  0  0  0  0  0  0  0  0  0  0
    5.4637   -7.9475    0.0000 C   0  0  0  0  0  0  0  0  0  0  0  0
    6.1781   -8.3600    0.0000 C   0  0  2  0  0  0  0  0  0  0  0  0
    6.8926   -7.9475    0.0000 C   0  0  1  0  0  0  0  0  0  0  0  0
    6.8926   -7.1225    0.0000 C   0  0  2  0  0  0  0  0  0  0  0  0
    6.1781   -6.7100    0.0000 C   0  0  0  0  0  0  0  0  0  0  0  0
    7.6071   -8.3600    0.0000 C   0  0  0  0  0  0  0  0  0  0  0  0
    8.3216   -7.9475    0.0000 C   0  0  2  0  0  0  0  0  0  0  0  0
    8.3216   -7.1225    0.0000 C   0  0  0  0  0  0  0  0  0  0  0  0
    7.6071   -6.7100    0.0000 C   0  0  0  0  0  0  0  0  0  0  0  0
    5.7656   -9.0745    0.0000 O   0  0  0  0  0  0  0  0  0  0  0  0
    6.8926   -8.7725    0.0000 H   0  0  0  0  0  0  0  0  0  0  0  0
    8.3600   -8.7725    0.0000 O   0  0  0  0  0  0  0  0  0  0  0  0
    9.1300   -8.4425    0.0000 C   0  0  1  0  0  0  0  0  0  0  0  0
    6.8926   -6.2975    0.0000 C   0  0  0  0  0  0  0  0  0  0  0  0
    6.5906   -9.0745    0.0000 C   0  0  0  0  0  0  0  0  0  0  0  0
    9.9528   -8.5021    0.0000 C   0  0  0  0  0  0  0  0  0  0  0  0
    9.2666   -9.2561    0.0000 C   0  0  0  0  0  0  0  0  0  0  0  0
  1  2  1  0  0  0  0
  2  3  1  0  0  0  0
  3  4  1  0  0  0  0
  4  5  1  0  0  0  0
  5  6  1  0  0  0  0
  6  1  1  0  0  0  0
  4  7  1  0  0  0  0
  7  8  1  0  0  0  0
  8  9  1  0  0  0  0
  9 10  1  0  0  0  0
 10  5  1  0  0  0  0
  3 11  1  6  0  0  0
  4 12  1  6  0  0  0
  8 13  1  6  0  0  0
 14 13  1  6  0  0  0
  8 14  1  1  0  0  0
  5 15  1  1  0  0  0
  3 16  1  1  0  0  0
 14 17  1  0  0  0  0
 14 18  1  0  0  0  0
M  END
>  <cdx:fragmentId>
5

$$$$
