99323.cdx
  Mrv1902 05222410252D          

 68 76  0  0  0  0            999 V2000
   16.5017   -8.2255    0.0000 C   0  0  1  0  0  0  0  0  0  0  0  0
   16.5017   -9.0505    0.0000 C   0  0  2  0  0  0  0  0  0  0  0  0
   15.7872   -9.4630    0.0000 C   0  0  0  0  0  0  0  0  0  0  0  0
   15.0727   -9.0505    0.0000 C   0  0  1  0  0  0  0  0  0  0  0  0
   14.3583   -9.4630    0.0000 C   0  0  2  0  0  0  0  0  0  0  0  0
   14.3583  -10.2880    0.0000 C   0  0  0  0  0  0  0  0  0  0  0  0
   13.6438  -10.7005    0.0000 C   0  0  0  0  0  0  0  0  0  0  0  0
   12.9293  -10.2880    0.0000 C   0  0  1  0  0  0  0  0  0  0  0  0
   12.2149  -10.7005    0.0000 C   0  0  0  0  0  0  0  0  0  0  0  0
   11.5004  -10.2880    0.0000 C   0  0  2  0  0  0  0  0  0  0  0  0
   11.5004   -9.4630    0.0000 C   0  0  0  0  0  0  0  0  0  0  0  0
   12.2149   -9.0505    0.0000 C   0  0  0  0  0  0  0  0  0  0  0  0
   12.9293   -9.4630    0.0000 C   0  0  2  0  0  0  0  0  0  0  0  0
   13.6438   -9.0505    0.0000 C   0  0  1  0  0  0  0  0  0  0  0  0
   13.6438   -8.2255    0.0000 C   0  0  0  0  0  0  0  0  0  0  0  0
   14.3583   -7.8130    0.0000 C   0  0  0  0  0  0  0  0  0  0  0  0
   15.0727   -8.2255    0.0000 C   0  0  0  0  0  0  0  0  0  0  0  0
   15.7872   -7.8130    0.0000 C   0  0  2  0  0  0  0  0  0  0  0  0
   12.6274  -11.4150    0.0000 C   0  0  0  0  0  0  0  0  0  0  0  0
   11.8024  -11.4150    0.0000 C   0  0  0  0  0  0  0  0  0  0  0  0
   10.7859  -10.7005    0.0000 O   0  0  0  0  0  0  0  0  0  0  0  0
    9.3570  -10.7005    0.0000 O   0  0  0  0  0  0  0  0  0  0  0  0
   10.0715  -10.2880    0.0000 C   0  0  2  0  0  0  0  0  0  0  0  0
   10.0715   -9.4630    0.0000 C   0  0  1  0  0  0  0  0  0  0  0  0
    9.3570   -9.0505    0.0000 C   0  0  2  0  0  0  0  0  0  0  0  0
    8.6425   -9.4630    0.0000 C   0  0  1  0  0  0  0  0  0  0  0  0
    8.6425  -10.2880    0.0000 C   0  0  1  0  0  0  0  0  0  0  0  0
    7.9280   -9.0505    0.0000 O   0  0  0  0  0  0  0  0  0  0  0  0
    9.3570   -8.2255    0.0000 O   0  0  0  0  0  0  0  0  0  0  0  0
   10.7859   -9.0505    0.0000 O   0  0  0  0  0  0  0  0  0  0  0  0
    7.9280  -10.7005    0.0000 C   0  0  0  0  0  0  0  0  0  0  0  0
    7.2136  -10.2880    0.0000 O   0  0  0  0  0  0  0  0  0  0  0  0
    5.7846  -10.2880    0.0000 O   0  0  0  0  0  0  0  0  0  0  0  0
    6.4991  -10.7005    0.0000 C   0  0  2  0  0  0  0  0  0  0  0  0
    6.4991  -11.5255    0.0000 C   0  0  1  0  0  0  0  0  0  0  0  0
    5.7846  -11.9380    0.0000 C   0  0  2  0  0  0  0  0  0  0  0  0
    5.0702  -11.5255    0.0000 C   0  0  2  0  0  0  0  0  0  0  0  0
    5.0702  -10.7005    0.0000 C   0  0  0  0  0  0  0  0  0  0  0  0
    7.2136  -11.9380    0.0000 O   0  0  0  0  0  0  0  0  0  0  0  0
    4.3557  -11.9380    0.0000 O   0  0  0  0  0  0  0  0  0  0  0  0
    5.7846  -12.7630    0.0000 O   0  0  0  0  0  0  0  0  0  0  0  0
   12.9293  -11.1130    0.0000 H   0  0  0  0  0  0  0  0  0  0  0  0
   15.7872   -8.6380    0.0000 H   0  0  0  0  0  0  0  0  0  0  0  0
   12.9293   -8.6380    0.0000 C   0  0  0  0  0  0  0  0  0  0  0  0
   14.3583   -8.6380    0.0000 C   0  0  0  0  0  0  0  0  0  0  0  0
   15.0727   -9.8755    0.0000 C   0  0  0  0  0  0  0  0  0  0  0  0
   13.6438   -9.8755    0.0000 H   0  0  0  0  0  0  0  0  0  0  0  0
   17.2162   -9.4630    0.0000 O   0  0  0  0  0  0  0  0  0  0  0  0
   17.2697   -7.9241    0.0000 C   0  0  0  0  0  0  0  0  0  0  0  0
   17.5128   -7.1358    0.0000 O   0  0  0  0  0  0  0  0  0  0  0  0
   17.0481   -6.4541    0.0000 C   0  0  2  0  0  0  0  0  0  0  0  0
   16.2254   -6.3925    0.0000 C   0  0  0  0  0  0  0  0  0  0  0  0
   15.6643   -6.9972    0.0000 C   0  0  0  0  0  0  0  0  0  0  0  0
   17.8744   -8.4852    0.0000 O   0  0  0  0  0  0  0  0  0  0  0  0
   16.2254   -5.5675    0.0000 C   0  0  0  0  0  0  0  0  0  0  0  0
   15.5109   -5.9800    0.0000 C   0  0  0  0  0  0  0  0  0  0  0  0
   16.4175   -7.2050    0.0000 C   0  0  0  0  0  0  0  0  0  0  0  0
   10.7859   -8.2255    0.0000 C   0  0  0  0  0  0  0  0  0  0  0  0
   11.5004   -7.8130    0.0000 C   0  0  1  0  0  0  0  0  0  0  0  0
   11.5004   -6.9880    0.0000 C   0  0  2  0  0  0  0  0  0  0  0  0
   10.7859   -6.5755    0.0000 C   0  0  1  0  0  0  0  0  0  0  0  0
   10.0715   -6.9880    0.0000 C   0  0  2  0  0  0  0  0  0  0  0  0
   10.0715   -7.8130    0.0000 O   0  0  0  0  0  0  0  0  0  0  0  0
    9.3570   -6.5755    0.0000 C   0  0  0  0  0  0  0  0  0  0  0  0
   12.2149   -6.5755    0.0000 O   0  0  0  0  0  0  0  0  0  0  0  0
   10.7859   -5.7505    0.0000 O   0  0  0  0  0  0  0  0  0  0  0  0
   12.2149   -8.2255    0.0000 O   0  0  0  0  0  0  0  0  0  0  0  0
    9.3570   -5.7505    0.0000 O   0  0  0  0  0  0  0  0  0  0  0  0
  1  2  1  0  0  0  0
  2  3  1  0  0  0  0
  3  4  1  0  0  0  0
  4  5  1  0  0  0  0
  5  6  1  0  0  0  0
  6  7  1  0  0  0  0
  7  8  1  0  0  0  0
  8  9  1  0  0  0  0
  9 10  1  0  0  0  0
 10 11  1  0  0  0  0
 11 12  1  0  0  0  0
 12 13  1  0  0  0  0
  8 13  1  0  0  0  0
 13 14  1  0  0  0  0
  5 14  1  0  0  0  0
 14 15  1  0  0  0  0
 15 16  1  0  0  0  0
 16 17  2  0  0  0  0
  4 17  1  0  0  0  0
 17 18  1  0  0  0  0
  1 18  1  0  0  0  0
  9 19  1  0  0  0  0
  9 20  1  0  0  0  0
 22 23  1  0  0  0  0
 23 24  1  0  0  0  0
 24 25  1  0  0  0  0
 25 26  1  0  0  0  0
 26 27  1  0  0  0  0
 22 27  1  0  0  0  0
 26 28  1  1  0  0  0
 25 29  1  6  0  0  0
 24 30  1  1  0  0  0
 33 34  1  0  0  0  0
 34 35  1  0  0  0  0
 35 36  1  0  0  0  0
 36 37  1  0  0  0  0
 37 38  1  0  0  0  0
 33 38  1  0  0  0  0
 35 39  1  6  0  0  0
 37 40  1  1  0  0  0
 36 41  1  1  0  0  0
 34 32  1  1  0  0  0
 31 32  1  0  0  0  0
 27 31  1  6  0  0  0
 23 21  1  6  0  0  0
 10 21  1  1  0  0  0
  8 42  1  6  0  0  0
 18 43  1  1  0  0  0
 13 44  1  1  0  0  0
  5 45  1  1  0  0  0
  4 46  1  6  0  0  0
 14 47  1  6  0  0  0
  2 48  1  1  0  0  0
  1 49  1  0  0  0  0
 49 50  1  0  0  0  0
 50 51  1  0  0  0  0
 51 52  1  0  0  0  0
 52 53  1  0  0  0  0
 53 18  1  0  0  0  0
 49 54  2  0  0  0  0
 52 55  1  0  0  0  0
 52 56  1  0  0  0  0
  1 57  1  6  0  0  0
 51 57  1  6  0  0  0
 30 58  1  6  0  0  0
 58 59  1  0  0  0  0
 59 60  1  0  0  0  0
 60 61  1  0  0  0  0
 61 62  1  0  0  0  0
 62 63  1  0  0  0  0
 63 58  1  0  0  0  0
 62 64  1  6  0  0  0
 60 65  1  6  0  0  0
 61 66  1  1  0  0  0
 59 67  1  1  0  0  0
 64 68  1  0  0  0  0
M  END
>  <cdx:fragmentId>
166833

$$$$
