99334.cdx
  Mrv1902 05222410252D          

 18 19  0  0  0  0            999 V2000
    5.4224   -7.1775    0.0000 C   0  0  0  0  0  0  0  0  0  0  0  0
    5.4224   -8.0025    0.0000 C   0  0  0  0  0  0  0  0  0  0  0  0
    6.1369   -8.4150    0.0000 C   0  0  0  0  0  0  0  0  0  0  0  0
    6.8514   -8.0025    0.0000 C   0  0  1  0  0  0  0  0  0  0  0  0
    6.8514   -7.1775    0.0000 C   0  0  2  0  0  0  0  0  0  0  0  0
    6.1369   -6.7650    0.0000 C   0  0  0  0  0  0  0  0  0  0  0  0
    7.5658   -8.4150    0.0000 C   0  0  0  0  0  0  0  0  0  0  0  0
    8.2803   -8.0025    0.0000 C   0  0  1  0  0  0  0  0  0  0  0  0
    8.2803   -7.1775    0.0000 C   0  0  0  0  0  0  0  0  0  0  0  0
    7.5658   -6.7650    0.0000 C   0  0  0  0  0  0  0  0  0  0  0  0
    6.1369   -9.2400    0.0000 C   0  0  0  0  0  0  0  0  0  0  0  0
    6.7203   -9.8234    0.0000 O   0  0  0  0  0  0  0  0  0  0  0  0
    8.9948   -8.4150    0.0000 C   0  0  0  0  0  0  0  0  0  0  0  0
    9.7093   -8.0025    0.0000 C   0  0  0  0  0  0  0  0  0  0  0  0
    8.9948   -9.2400    0.0000 C   0  0  0  0  0  0  0  0  0  0  0  0
   10.4237   -8.4150    0.0000 O   0  0  0  0  0  0  0  0  0  0  0  0
    6.8514   -6.3525    0.0000 C   0  0  0  0  0  0  0  0  0  0  0  0
    6.8514   -8.8275    0.0000 H   0  0  0  0  0  0  0  0  0  0  0  0
  1  2  1  0  0  0  0
  2  3  2  0  0  0  0
  3  4  1  0  0  0  0
  4  5  1  0  0  0  0
  5  6  1  0  0  0  0
  6  1  1  0  0  0  0
  4  7  1  0  0  0  0
  7  8  1  0  0  0  0
  8  9  1  0  0  0  0
  9 10  1  0  0  0  0
 10  5  1  0  0  0  0
  3 11  1  0  0  0  0
 11 12  2  0  0  0  0
  8 13  1  1  0  0  0
 13 14  1  0  0  0  0
 13 15  2  0  0  0  0
 14 16  1  0  0  0  0
  5 17  1  1  0  0  0
  4 18  1  6  0  0  0
M  END
>  <cdx:fragmentId>
5

$$$$
