99333.cdx
  Mrv1902 05222410242D          

 44 47  0  0  0  0            999 V2000
    5.9931   -9.8164    0.0000 O   0  0  0  0  0  0  0  0  0  0  0  0
    6.7075  -11.0539    0.0000 O   0  0  0  0  0  0  0  0  0  0  0  0
    7.4220  -10.6414    0.0000 C   0  0  2  0  0  0  0  0  0  0  0  0
    7.4220   -9.8164    0.0000 C   0  0  1  0  0  0  0  0  0  0  0  0
    6.7075   -9.4039    0.0000 C   0  0  0  0  0  0  0  0  0  0  0  0
    8.1365  -11.0539    0.0000 C   0  0  1  0  0  0  0  0  0  0  0  0
    8.8509  -10.6414    0.0000 C   0  0  2  0  0  0  0  0  0  0  0  0
    8.8509   -9.8164    0.0000 C   0  0  1  0  0  0  0  0  0  0  0  0
    8.1365   -9.4039    0.0000 O   0  0  0  0  0  0  0  0  0  0  0  0
    9.5654   -9.4039    0.0000 O   0  0  0  0  0  0  0  0  0  0  0  0
    9.5654   -8.5789    0.0000 C   0  0  2  0  0  0  0  0  0  0  0  0
    8.8509   -8.1664    0.0000 O   0  0  0  0  0  0  0  0  0  0  0  0
   10.2799   -8.1664    0.0000 C   0  0  1  0  0  0  0  0  0  0  0  0
   10.2799   -7.3414    0.0000 C   0  0  1  0  0  0  0  0  0  0  0  0
    9.5654   -6.9289    0.0000 C   0  0  0  0  0  0  0  0  0  0  0  0
    8.8509   -7.3414    0.0000 C   0  0  0  0  0  0  0  0  0  0  0  0
   11.0645   -8.4213    0.0000 C   0  0  1  0  0  0  0  0  0  0  0  0
   11.5494   -7.7539    0.0000 C   0  0  0  0  0  0  0  0  0  0  0  0
   11.0645   -7.0865    0.0000 C   0  0  1  0  0  0  0  0  0  0  0  0
    9.5654   -6.1039    0.0000 C   0  0  0  0  0  0  0  0  0  0  0  0
    8.8509   -5.6914    0.0000 O   0  0  0  0  0  0  0  0  0  0  0  0
   10.2799   -5.6914    0.0000 O   0  0  0  0  0  0  0  0  0  0  0  0
    8.8509   -4.8664    0.0000 C   0  0  0  0  0  0  0  0  0  0  0  0
   10.8510   -9.2182    0.0000 C   0  0  0  0  0  0  0  0  0  0  0  0
   11.7790   -8.8338    0.0000 O   0  0  0  0  0  0  0  0  0  0  0  0
   12.4934   -8.4213    0.0000 C   0  0  0  0  0  0  0  0  0  0  0  0
   13.2079   -8.8338    0.0000 C   0  0  0  0  0  0  0  0  0  0  0  0
   12.4934   -7.5963    0.0000 O   0  0  0  0  0  0  0  0  0  0  0  0
    8.1365  -11.8789    0.0000 O   0  0  0  0  0  0  0  0  0  0  0  0
    9.5654  -11.0539    0.0000 O   0  0  0  0  0  0  0  0  0  0  0  0
   11.3194   -6.3018    0.0000 O   0  0  0  0  0  0  0  0  0  0  0  0
   10.3661   -6.5209    0.0000 H   0  0  0  0  0  0  0  0  0  0  0  0
   10.3661   -8.9869    0.0000 H   0  0  0  0  0  0  0  0  0  0  0  0
    5.2786   -9.4039    0.0000 C   0  0  0  0  0  0  0  0  0  0  0  0
    4.5641   -9.8164    0.0000 C   0  0  0  0  0  0  0  0  0  0  0  0
    5.2786   -8.5789    0.0000 O   0  0  0  0  0  0  0  0  0  0  0  0
    3.8496   -9.4039    0.0000 C   0  0  0  0  0  0  0  0  0  0  0  0
    3.1352   -9.8164    0.0000 C   0  0  0  0  0  0  0  0  0  0  0  0
    2.4207   -9.4039    0.0000 C   0  0  0  0  0  0  0  0  0  0  0  0
    1.7062   -9.8164    0.0000 C   0  0  0  0  0  0  0  0  0  0  0  0
    1.7062  -10.6414    0.0000 C   0  0  0  0  0  0  0  0  0  0  0  0
    2.4207  -11.0539    0.0000 C   0  0  0  0  0  0  0  0  0  0  0  0
    3.1352  -10.6414    0.0000 C   0  0  0  0  0  0  0  0  0  0  0  0
    0.9918  -11.0539    0.0000 O   0  0  0  0  0  0  0  0  0  0  0  0
  3  2  1  6  0  0  0
  3  4  1  0  0  0  0
  4  5  1  1  0  0  0
  5  1  1  0  0  0  0
  3  6  1  0  0  0  0
  6  7  1  0  0  0  0
  7  8  1  0  0  0  0
  8  9  1  0  0  0  0
  9  4  1  0  0  0  0
  8 10  1  1  0  0  0
 11 10  1  6  0  0  0
 11 12  1  0  0  0  0
 11 13  1  0  0  0  0
 13 14  1  0  0  0  0
 14 15  1  0  0  0  0
 15 16  2  0  0  0  0
 16 12  1  0  0  0  0
 13 17  1  0  0  0  0
 17 18  1  0  0  0  0
 18 19  1  0  0  0  0
 19 14  1  0  0  0  0
 15 20  1  0  0  0  0
 20 21  1  0  0  0  0
 20 22  2  0  0  0  0
 21 23  1  0  0  0  0
 17 24  1  0  0  0  0
 17 25  1  6  0  0  0
 25 26  1  0  0  0  0
 26 27  1  0  0  0  0
 26 28  2  0  0  0  0
  6 29  1  1  0  0  0
  7 30  1  6  0  0  0
 19 31  1  6  0  0  0
 14 32  1  6  0  0  0
 13 33  1  6  0  0  0
  1 34  1  0  0  0  0
 34 35  1  0  0  0  0
 34 36  2  0  0  0  0
 35 37  2  0  0  0  0
 37 38  1  0  0  0  0
 38 39  2  0  0  0  0
 39 40  1  0  0  0  0
 40 41  2  0  0  0  0
 41 42  1  0  0  0  0
 42 43  2  0  0  0  0
 43 38  1  0  0  0  0
 41 44  1  0  0  0  0
M  END
>  <cdx:fragmentId>
178

$$$$
