99335.cdx
  Mrv1902 05222410252D          

 17 18  0  0  0  0            999 V2000
    4.9137   -6.4763    0.0000 C   0  0  0  0  0  0  0  0  0  0  0  0
    4.9137   -7.3012    0.0000 C   0  0  0  0  0  0  0  0  0  0  0  0
    5.6281   -7.7138    0.0000 C   0  0  2  0  0  0  0  0  0  0  0  0
    6.3426   -7.3012    0.0000 C   0  0  1  0  0  0  0  0  0  0  0  0
    6.3426   -6.4763    0.0000 C   0  0  2  0  0  0  0  0  0  0  0  0
    5.6281   -6.0638    0.0000 C   0  0  0  0  0  0  0  0  0  0  0  0
    7.0571   -7.7138    0.0000 C   0  0  0  0  0  0  0  0  0  0  0  0
    7.7716   -7.3012    0.0000 C   0  0  1  0  0  0  0  0  0  0  0  0
    7.7716   -6.4763    0.0000 C   0  0  0  0  0  0  0  0  0  0  0  0
    7.0571   -6.0638    0.0000 C   0  0  0  0  0  0  0  0  0  0  0  0
    8.4860   -7.7138    0.0000 C   0  0  0  0  0  0  0  0  0  0  0  0
    9.2005   -7.3012    0.0000 C   0  0  0  0  0  0  0  0  0  0  0  0
    8.4860   -8.5388    0.0000 C   0  0  0  0  0  0  0  0  0  0  0  0
    5.2156   -8.4282    0.0000 O   0  0  0  0  0  0  0  0  0  0  0  0
    6.3426   -8.1263    0.0000 H   0  0  0  0  0  0  0  0  0  0  0  0
    6.0406   -8.4282    0.0000 C   0  0  0  0  0  0  0  0  0  0  0  0
    6.3426   -5.6512    0.0000 C   0  0  0  0  0  0  0  0  0  0  0  0
  1  2  1  0  0  0  0
  2  3  1  0  0  0  0
  3  4  1  0  0  0  0
  4  5  1  0  0  0  0
  5  6  1  0  0  0  0
  6  1  1  0  0  0  0
  4  7  1  0  0  0  0
  7  8  1  0  0  0  0
  8  9  1  0  0  0  0
  9 10  1  0  0  0  0
 10  5  1  0  0  0  0
  8 11  1  1  0  0  0
 11 12  1  0  0  0  0
 11 13  2  0  0  0  0
  3 14  1  6  0  0  0
  4 15  1  6  0  0  0
  3 16  1  1  0  0  0
  5 17  1  1  0  0  0
M  END
>  <cdx:fragmentId>
5

$$$$
