99336.cdx
  Mrv1902 05222410252D          

 47 50  0  0  0  0            999 V2000
    6.8310  -11.0296    0.0000 C   0  0  0  0  0  0  0  0  0  0  0  0
    6.1166  -10.6171    0.0000 C   0  0  1  0  0  0  0  0  0  0  0  0
    5.4021  -11.0296    0.0000 C   0  0  1  0  0  0  0  0  0  0  0  0
    6.8310  -11.8546    0.0000 O   0  0  0  0  0  0  0  0  0  0  0  0
    7.5455  -10.6171    0.0000 N   0  0  0  0  0  0  0  0  0  0  0  0
    6.1166   -9.7921    0.0000 O   0  0  0  0  0  0  0  0  0  0  0  0
    6.8310   -9.3796    0.0000 C   0  0  0  0  0  0  0  0  0  0  0  0
    6.8310   -8.5546    0.0000 C   0  0  0  0  0  0  0  0  0  0  0  0
    7.5455   -8.1421    0.0000 C   0  0  0  0  0  0  0  0  0  0  0  0
    8.2600   -8.5546    0.0000 C   0  0  0  0  0  0  0  0  0  0  0  0
    8.2600   -9.3796    0.0000 C   0  0  0  0  0  0  0  0  0  0  0  0
    7.5455   -9.7921    0.0000 C   0  0  0  0  0  0  0  0  0  0  0  0
    6.1166   -8.1421    0.0000 O   0  0  0  0  0  0  0  0  0  0  0  0
    5.4021   -8.5546    0.0000 C   0  0  0  0  0  0  0  0  0  0  0  0
    8.9744   -8.1421    0.0000 C   0  0  0  0  0  0  0  0  0  0  0  0
    8.9739   -7.3171    0.0000 C   0  0  0  0  0  0  0  0  0  0  0  0
    8.2592   -6.9050    0.0000 C   0  0  0  0  0  0  0  0  0  0  0  0
    7.5450   -7.3179    0.0000 O   0  0  0  0  0  0  0  0  0  0  0  0
    8.2587   -6.0800    0.0000 N   0  0  0  0  0  0  0  0  0  0  0  0
    7.5440   -5.6679    0.0000 C   0  0  0  0  0  0  0  0  0  0  0  0
    7.5435   -4.8429    0.0000 C   0  0  0  0  0  0  0  0  0  0  0  0
    6.8288   -4.4309    0.0000 C   0  0  0  0  0  0  0  0  0  0  0  0
    6.1146   -4.8438    0.0000 C   0  0  0  0  0  0  0  0  0  0  0  0
    5.3998   -4.4317    0.0000 C   0  0  0  0  0  0  0  0  0  0  0  0
    5.3994   -3.6067    0.0000 C   0  0  0  0  0  0  0  0  0  0  0  0
    6.1136   -3.1938    0.0000 C   0  0  0  0  0  0  0  0  0  0  0  0
    6.8283   -3.6059    0.0000 C   0  0  0  0  0  0  0  0  0  0  0  0
    4.6846   -3.1947    0.0000 O   0  0  0  0  0  0  0  0  0  0  0  0
    8.2600  -11.0296    0.0000 C   0  0  0  0  0  0  0  0  0  0  0  0
    8.9744  -10.6171    0.0000 C   0  0  0  0  0  0  0  0  0  0  0  0
    9.6889  -11.0296    0.0000 C   0  0  0  0  0  0  0  0  0  0  0  0
   10.4034  -10.6171    0.0000 C   0  0  0  0  0  0  0  0  0  0  0  0
   11.1179  -11.0296    0.0000 C   0  0  0  0  0  0  0  0  0  0  0  0
   11.1179  -11.8546    0.0000 C   0  0  0  0  0  0  0  0  0  0  0  0
   10.4034  -12.2671    0.0000 C   0  0  0  0  0  0  0  0  0  0  0  0
    9.6889  -11.8546    0.0000 C   0  0  0  0  0  0  0  0  0  0  0  0
   11.8323  -12.2671    0.0000 O   0  0  0  0  0  0  0  0  0  0  0  0
    4.6876  -10.6171    0.0000 C   0  0  0  0  0  0  0  0  0  0  0  0
    3.9731  -11.0296    0.0000 C   0  0  0  0  0  0  0  0  0  0  0  0
    3.2587  -10.6171    0.0000 C   0  0  0  0  0  0  0  0  0  0  0  0
    3.2587   -9.7921    0.0000 C   0  0  0  0  0  0  0  0  0  0  0  0
    3.9731   -9.3796    0.0000 C   0  0  0  0  0  0  0  0  0  0  0  0
    4.6876   -9.7921    0.0000 C   0  0  0  0  0  0  0  0  0  0  0  0
    2.5442  -11.0296    0.0000 O   0  0  0  0  0  0  0  0  0  0  0  0
    1.8297  -10.6171    0.0000 C   0  0  0  0  0  0  0  0  0  0  0  0
    2.5442   -9.3796    0.0000 O   0  0  0  0  0  0  0  0  0  0  0  0
    5.4021  -11.8546    0.0000 O   0  0  0  0  0  0  0  0  0  0  0  0
  1  2  1  0  0  0  0
  2  3  1  0  0  0  0
  1  4  2  0  0  0  0
  1  5  1  0  0  0  0
  7  8  1  0  0  0  0
  8  9  2  0  0  0  0
  9 10  1  0  0  0  0
 10 11  2  0  0  0  0
 11 12  1  0  0  0  0
  7 12  2  0  0  0  0
  6  7  1  0  0  0  0
 13 14  1  0  0  0  0
  8 13  1  0  0  0  0
 15 16  2  0  0  0  0
 16 17  1  0  0  0  0
 17 18  2  0  0  0  0
 20 21  1  0  0  0  0
 22 23  1  0  0  0  0
 23 24  2  0  0  0  0
 24 25  1  0  0  0  0
 25 26  2  0  0  0  0
 26 27  1  0  0  0  0
 22 27  2  0  0  0  0
 25 28  1  0  0  0  0
 21 22  1  0  0  0  0
 19 20  1  0  0  0  0
 17 19  1  0  0  0  0
 10 15  1  0  0  0  0
  2  6  1  1  0  0  0
 29 30  1  0  0  0  0
 31 32  1  0  0  0  0
 32 33  2  0  0  0  0
 33 34  1  0  0  0  0
 34 35  2  0  0  0  0
 35 36  1  0  0  0  0
 31 36  2  0  0  0  0
 34 37  1  0  0  0  0
 30 31  1  0  0  0  0
  5 29  1  0  0  0  0
 38 39  1  0  0  0  0
 39 40  2  0  0  0  0
 40 41  1  0  0  0  0
 41 42  2  0  0  0  0
 42 43  1  0  0  0  0
 38 43  2  0  0  0  0
 44 45  1  0  0  0  0
 40 44  1  0  0  0  0
 41 46  1  0  0  0  0
  3 38  1  0  0  0  0
  3 47  1  6  0  0  0
M  END
>  <cdx:fragmentId>
1056

$$$$
