99331.cdx
  Mrv1902 05222410232D          

 12 12  0  0  0  0            999 V2000
    5.7667   -8.0358    0.0000 O   0  0  0  0  0  0  0  0  0  0  0  0
    5.0522   -8.4483    0.0000 C   0  0  0  0  0  0  0  0  0  0  0  0
    6.4812   -8.4483    0.0000 C   0  0  0  0  0  0  0  0  0  0  0  0
    7.1956   -8.0358    0.0000 C   0  0  0  0  0  0  0  0  0  0  0  0
    7.9101   -8.4483    0.0000 C   0  0  0  0  0  0  0  0  0  0  0  0
    8.6246   -8.0358    0.0000 C   0  0  0  0  0  0  0  0  0  0  0  0
    8.6246   -7.2108    0.0000 C   0  0  0  0  0  0  0  0  0  0  0  0
    9.3391   -8.4483    0.0000 C   0  0  0  0  0  0  0  0  0  0  0  0
    7.9101   -9.2733    0.0000 C   0  0  0  0  0  0  0  0  0  0  0  0
    7.1956   -9.6858    0.0000 C   0  0  0  0  0  0  0  0  0  0  0  0
    6.4812   -9.2733    0.0000 C   0  0  0  0  0  0  0  0  0  0  0  0
    5.7667   -9.6858    0.0000 C   0  0  0  0  0  0  0  0  0  0  0  0
  1  2  1  0  0  0  0
  3  4  1  0  0  0  0
  4  5  2  0  0  0  0
  5  6  1  0  0  0  0
  6  7  1  0  0  0  0
  6  8  1  0  0  0  0
  5  9  1  0  0  0  0
  9 10  2  0  0  0  0
 10 11  1  0  0  0  0
 11 12  1  0  0  0  0
  3 11  2  0  0  0  0
  1  3  1  0  0  0  0
M  END
>  <cdx:fragmentId>
9

$$$$
