99330.cdx
  Mrv1902 05222410232D          

 18 20  0  0  0  0            999 V2000
    5.4637   -7.1225    0.0000 C   0  0  0  0  0  0  0  0  0  0  0  0
    5.4637   -7.9475    0.0000 C   0  0  0  0  0  0  0  0  0  0  0  0
    6.1781   -8.3600    0.0000 C   0  0  2  0  0  0  0  0  0  0  0  0
    6.8926   -7.9475    0.0000 C   0  0  1  0  0  0  0  0  0  0  0  0
    6.8926   -7.1225    0.0000 C   0  0  2  0  0  0  0  0  0  0  0  0
    6.1781   -6.7100    0.0000 C   0  0  0  0  0  0  0  0  0  0  0  0
    7.6071   -8.3600    0.0000 C   0  0  0  0  0  0  0  0  0  0  0  0
    8.3216   -7.1225    0.0000 C   0  0  0  0  0  0  0  0  0  0  0  0
    7.6071   -6.7100    0.0000 C   0  0  0  0  0  0  0  0  0  0  0  0
    5.7656   -9.0745    0.0000 O   0  0  0  0  0  0  0  0  0  0  0  0
    6.8926   -8.7725    0.0000 H   0  0  0  0  0  0  0  0  0  0  0  0
    6.8926   -6.2975    0.0000 C   0  0  0  0  0  0  0  0  0  0  0  0
    6.5906   -9.0745    0.0000 C   0  0  0  0  0  0  0  0  0  0  0  0
    9.2400   -8.3875    0.0000 C   0  0  1  0  0  0  0  0  0  0  0  0
    9.0200   -7.6175    0.0000 O   0  0  0  0  0  0  0  0  0  0  0  0
    8.3216   -7.9475    0.0000 C   0  0  2  0  0  0  0  0  0  0  0  0
    9.7722   -9.0179    0.0000 C   0  0  0  0  0  0  0  0  0  0  0  0
    8.7354   -9.0402    0.0000 C   0  0  0  0  0  0  0  0  0  0  0  0
  1  2  1  0  0  0  0
  2  3  1  0  0  0  0
  3  4  1  0  0  0  0
  4  5  1  0  0  0  0
  5  6  1  0  0  0  0
  6  1  1  0  0  0  0
  4  7  1  0  0  0  0
  7 16  1  0  0  0  0
 16  8  1  0  0  0  0
  8  9  1  0  0  0  0
  9  5  1  0  0  0  0
  3 10  1  6  0  0  0
  4 11  1  6  0  0  0
 16 14  1  6  0  0  0
 14 15  1  1  0  0  0
  5 12  1  1  0  0  0
  3 13  1  1  0  0  0
 16 15  1  1  0  0  0
 14 17  1  0  0  0  0
 14 18  1  0  0  0  0
M  END
>  <cdx:fragmentId>
5

$$$$
