99341.cdx
  Mrv1902 05222410272D          

 33 38  0  0  0  0            999 V2000
    5.4637   -5.8438    0.0000 C   0  0  0  0  0  0  0  0  0  0  0  0
    5.4637   -6.6688    0.0000 C   0  0  0  0  0  0  0  0  0  0  0  0
    6.1781   -7.0812    0.0000 C   0  0  0  0  0  0  0  0  0  0  0  0
    6.8926   -6.6688    0.0000 C   0  0  0  0  0  0  0  0  0  0  0  0
    6.8926   -5.8438    0.0000 C   0  0  0  0  0  0  0  0  0  0  0  0
    6.1781   -5.4313    0.0000 C   0  0  0  0  0  0  0  0  0  0  0  0
    7.6071   -7.0812    0.0000 C   0  0  0  0  0  0  0  0  0  0  0  0
    8.3216   -6.6688    0.0000 N   0  0  0  0  0  0  0  0  0  0  0  0
    8.3216   -5.8438    0.0000 C   0  0  0  0  0  0  0  0  0  0  0  0
    7.6071   -5.4313    0.0000 C   0  0  0  0  0  0  0  0  0  0  0  0
    6.1781   -7.9063    0.0000 C   0  0  0  0  0  0  0  0  0  0  0  0
    6.8926   -8.3187    0.0000 C   0  0  0  0  0  0  0  0  0  0  0  0
    7.6071   -7.9063    0.0000 C   0  0  0  0  0  0  0  0  0  0  0  0
    5.4637   -8.3187    0.0000 C   0  0  0  0  0  0  0  0  0  0  0  0
    5.4637   -9.1438    0.0000 C   0  0  0  0  0  0  0  0  0  0  0  0
    6.1781   -9.5563    0.0000 C   0  0  0  0  0  0  0  0  0  0  0  0
    6.8926   -9.1438    0.0000 C   0  0  0  0  0  0  0  0  0  0  0  0
    4.6791   -5.5888    0.0000 O   0  0  0  0  0  0  0  0  0  0  0  0
    4.1941   -6.2563    0.0000 C   0  0  0  0  0  0  0  0  0  0  0  0
    4.6791   -6.9237    0.0000 O   0  0  0  0  0  0  0  0  0  0  0  0
    7.6071   -4.6063    0.0000 O   0  0  0  0  0  0  0  0  0  0  0  0
    9.0360   -5.4312    0.0000 O   0  0  0  0  0  0  0  0  0  0  0  0
    9.0360   -7.0812    0.0000 C   0  0  2  0  0  0  0  0  0  0  0  0
    9.0360   -7.9063    0.0000 O   0  0  0  0  0  0  0  0  0  0  0  0
    9.7505   -8.3187    0.0000 C   0  0  1  0  0  0  0  0  0  0  0  0
   10.4650   -7.9063    0.0000 C   0  0  2  0  0  0  0  0  0  0  0  0
   10.4650   -7.0812    0.0000 C   0  0  1  0  0  0  0  0  0  0  0  0
    9.7505   -6.6688    0.0000 C   0  0  1  0  0  0  0  0  0  0  0  0
    9.7505   -9.1438    0.0000 C   0  0  0  0  0  0  0  0  0  0  0  0
   11.1794   -6.6688    0.0000 O   0  0  0  0  0  0  0  0  0  0  0  0
    9.7505   -5.8438    0.0000 O   0  0  0  0  0  0  0  0  0  0  0  0
   11.1794   -8.3187    0.0000 O   0  0  0  0  0  0  0  0  0  0  0  0
   10.4650   -9.5563    0.0000 O   0  0  0  0  0  0  0  0  0  0  0  0
  1  2  2  0  0  0  0
  2  3  1  0  0  0  0
  3  4  2  0  0  0  0
  4  5  1  0  0  0  0
  5  6  2  0  0  0  0
  6  1  1  0  0  0  0
  4  7  1  0  0  0  0
  7  8  1  0  0  0  0
  8  9  1  0  0  0  0
  9 10  1  0  0  0  0
 10  5  1  0  0  0  0
  3 11  1  0  0  0  0
 11 12  2  0  0  0  0
 12 13  1  0  0  0  0
 13  7  2  0  0  0  0
 11 14  1  0  0  0  0
 14 15  2  0  0  0  0
 15 16  1  0  0  0  0
 16 17  2  0  0  0  0
 17 12  1  0  0  0  0
  1 18  1  0  0  0  0
 18 19  1  0  0  0  0
 19 20  1  0  0  0  0
 20  2  1  0  0  0  0
 10 21  2  0  0  0  0
  9 22  2  0  0  0  0
 23  8  1  1  0  0  0
 23 24  1  0  0  0  0
 24 25  1  0  0  0  0
 25 26  1  0  0  0  0
 26 27  1  0  0  0  0
 27 28  1  0  0  0  0
 28 23  1  0  0  0  0
 25 29  1  1  0  0  0
 27 30  1  1  0  0  0
 28 31  1  6  0  0  0
 26 32  1  6  0  0  0
 29 33  1  0  0  0  0
M  END
>  <cdx:fragmentId>
5

$$$$
