99360.cdx
  Mrv1902 05222410192D          

 62 68  0  0  0  0            999 V2000
    7.6612   -6.7089    0.0000 O   0  0  0  0  0  0  0  0  0  0  0  0
    8.3933   -7.1344    0.0000 C   0  0  0  0  0  0  0  0  0  0  0  0
    8.3924   -7.9594    0.0000 C   0  0  0  0  0  0  0  0  0  0  0  0
    9.1065   -8.3727    0.0000 C   0  0  0  0  0  0  0  0  0  0  0  0
    9.1056   -9.1977    0.0000 C   0  0  0  0  0  0  0  0  0  0  0  0
    9.8196   -9.6109    0.0000 C   0  0  0  0  0  0  0  0  0  0  0  0
    9.8187  -10.4359    0.0000 C   0  0  0  0  0  0  0  0  0  0  0  0
   10.5328  -10.8492    0.0000 C   0  0  0  0  0  0  0  0  0  0  0  0
   10.5319  -11.6742    0.0000 C   0  0  0  0  0  0  0  0  0  0  0  0
   11.2459  -12.0875    0.0000 C   0  0  0  0  0  0  0  0  0  0  0  0
   11.2450  -12.9125    0.0000 C   0  0  0  0  0  0  0  0  0  0  0  0
    9.1082   -6.7227    0.0000 O   0  0  0  0  0  0  0  0  0  0  0  0
    7.0863   -5.1884    0.0000 C   0  0  2  0  0  0  0  0  0  0  0  0
    7.4464   -5.9307    0.0000 C   0  0  2  0  0  0  0  0  0  0  0  0
    7.0906   -6.6750    0.0000 C   0  0  1  0  0  0  0  0  0  0  0  0
    6.2868   -6.8610    0.0000 C   0  0  1  0  0  0  0  0  0  0  0  0
    5.6403   -6.3485    0.0000 C   0  0  1  0  0  0  0  0  0  0  0  0
    5.6379   -5.5235    0.0000 C   0  0  2  0  0  0  0  0  0  0  0  0
    6.2814   -5.0072    0.0000 C   0  0  2  0  0  0  0  0  0  0  0  0
    4.9271   -6.7630    0.0000 C   0  0  2  0  0  0  0  0  0  0  0  0
    4.2114   -6.3526    0.0000 C   0  0  0  0  0  0  0  0  0  0  0  0
    4.2090   -5.5276    0.0000 C   0  0  0  0  0  0  0  0  0  0  0  0
    4.9222   -5.1130    0.0000 C   0  0  2  0  0  0  0  0  0  0  0  0
    6.2051   -4.1857    0.0000 C   0  0  0  0  0  0  0  0  0  0  0  0
    6.9627   -3.8593    0.0000 C   0  0  0  0  0  0  0  0  0  0  0  0
    7.5073   -4.4790    0.0000 C   0  0  2  0  0  0  0  0  0  0  0  0
    4.9198   -4.2881    0.0000 O   0  0  0  0  0  0  0  0  0  0  0  0
    4.2087   -3.8699    0.0000 C   0  0  0  0  0  0  0  0  0  0  0  0
    4.9295   -7.5880    0.0000 C   0  0  0  0  0  0  0  0  0  0  0  0
    4.2162   -8.0026    0.0000 O   0  0  0  0  0  0  0  0  0  0  0  0
    4.2186   -8.8276    0.0000 C   0  0  0  0  0  0  0  0  0  0  0  0
    5.6375   -4.8675    0.0000 C   0  0  0  0  0  0  0  0  0  0  0  0
    4.9225   -5.8850    0.0000 N   0  0  0  0  0  0  0  0  0  0  0  0
    4.2075   -7.0675    0.0000 C   0  0  0  0  0  0  0  0  0  0  0  0
    8.2450   -5.7235    0.0000 C   0  0  2  0  0  0  0  0  0  0  0  0
    8.2775   -4.0425    0.0000 C   0  0  2  0  0  0  0  0  0  0  0  0
    8.9925   -4.4825    0.0000 O   0  0  0  0  0  0  0  0  0  0  0  0
    5.6337   -7.1734    0.0000 H   0  0  0  0  0  0  0  0  0  0  0  0
    5.6981   -4.4238    0.0000 H   0  0  0  0  0  0  0  0  0  0  0  0
    7.9112   -5.1950    0.0000 H   0  0  0  0  0  0  0  0  0  0  0  0
    7.0906   -7.5000    0.0000 H   0  0  0  0  0  0  0  0  0  0  0  0
    3.7400   -5.8850    0.0000 C   0  0  0  0  0  0  0  0  0  0  0  0
    8.9920   -3.6300    0.0000 O   0  0  0  0  0  0  0  0  0  0  0  0
    8.9920   -2.8050    0.0000 C   0  0  0  0  0  0  0  0  0  0  0  0
    6.2868   -7.6860    0.0000 O   0  0  0  0  0  0  0  0  0  0  0  0
    5.5724   -8.0985    0.0000 C   0  0  0  0  0  0  0  0  0  0  0  0
    9.7070   -4.8950    0.0000 C   0  0  0  0  0  0  0  0  0  0  0  0
   10.4214   -4.4825    0.0000 C   0  0  0  0  0  0  0  0  0  0  0  0
    9.7070   -5.7200    0.0000 O   0  0  0  0  0  0  0  0  0  0  0  0
   11.1359   -4.8950    0.0000 C   0  0  0  0  0  0  0  0  0  0  0  0
   11.8504   -4.4825    0.0000 C   0  0  0  0  0  0  0  0  0  0  0  0
   11.8504   -3.6575    0.0000 C   0  0  0  0  0  0  0  0  0  0  0  0
   11.1359   -3.2450    0.0000 C   0  0  0  0  0  0  0  0  0  0  0  0
   10.4214   -3.6575    0.0000 C   0  0  0  0  0  0  0  0  0  0  0  0
    9.0418   -5.9371    0.0000 O   0  0  0  0  0  0  0  0  0  0  0  0
   11.9591  -13.3257    0.0000 C   0  0  0  0  0  0  0  0  0  0  0  0
   11.9582  -14.1507    0.0000 C   0  0  0  0  0  0  0  0  0  0  0  0
   12.6722  -14.5640    0.0000 C   0  0  0  0  0  0  0  0  0  0  0  0
   12.6713  -15.3890    0.0000 C   0  0  0  0  0  0  0  0  0  0  0  0
   13.3853  -15.8022    0.0000 C   0  0  0  0  0  0  0  0  0  0  0  0
   13.3845  -16.6272    0.0000 C   0  0  0  0  0  0  0  0  0  0  0  0
    3.1566   -5.3016    0.0000 C   0  0  0  0  0  0  0  0  0  0  0  0
  2  3  1  0  0  0  0
  3  4  1  0  0  0  0
  4  5  1  0  0  0  0
  5  6  1  0  0  0  0
  6  7  1  0  0  0  0
  7  8  1  0  0  0  0
  8  9  1  0  0  0  0
  9 10  1  0  0  0  0
 10 11  1  0  0  0  0
  2 12  2  0  0  0  0
  2  1  1  0  0  0  0
 13 14  1  0  0  0  0
 14 15  1  0  0  0  0
 15 16  1  0  0  0  0
 16 17  1  0  0  0  0
 17 18  1  0  0  0  0
 18 19  1  0  0  0  0
 19 13  1  0  0  0  0
 17 20  1  0  0  0  0
 20 21  1  0  0  0  0
 21 22  1  0  0  0  0
 22 23  1  0  0  0  0
 18 23  1  1  0  0  0
 19 24  1  0  0  0  0
 24 25  1  0  0  0  0
 25 26  1  0  0  0  0
 26 13  1  0  0  0  0
 23 27  1  6  0  0  0
 27 28  1  0  0  0  0
 20 29  1  1  0  0  0
 29 30  1  0  0  0  0
 30 31  1  0  0  0  0
 18 32  1  0  0  0  0
 15 32  1  0  0  0  0
 32 33  1  0  0  0  0
 33 34  1  0  0  0  0
 20 34  1  0  0  0  0
 14 35  1  0  0  0  0
 25 36  1  0  0  0  0
 36 35  1  0  0  0  0
 26 37  1  6  0  0  0
 17 38  1  1  0  0  0
 19 39  1  1  0  0  0
 13 40  1  1  0  0  0
 15 41  1  6  0  0  0
 33 42  1  0  0  0  0
 36 43  1  1  0  0  0
 43 44  1  0  0  0  0
 16 45  1  6  0  0  0
 45 46  1  0  0  0  0
 37 47  1  0  0  0  0
 47 48  1  0  0  0  0
 47 49  2  0  0  0  0
 48 50  2  0  0  0  0
 50 51  1  0  0  0  0
 51 52  2  0  0  0  0
 52 53  1  0  0  0  0
 53 54  2  0  0  0  0
 54 48  1  0  0  0  0
 35 55  1  6  0  0  0
 14  1  1  1  0  0  0
 11 56  1  0  0  0  0
 56 57  1  0  0  0  0
 57 58  1  0  0  0  0
 58 59  1  0  0  0  0
 59 60  1  0  0  0  0
 60 61  1  0  0  0  0
 42 62  1  0  0  0  0
M  END
>  <cdx:fragmentId>
220

$$$$
