99366.cdx
  Mrv1902 05222410182D          

 19 19  0  0  0  0            999 V2000
    5.1869   -8.1873    0.0000 O   0  0  0  0  0  0  0  0  0  0  0  0
    5.8026   -7.6382    0.0000 C   0  0  0  0  0  0  0  0  0  0  0  0
    9.3171   -8.2069    0.0000 O   0  0  0  0  0  0  0  0  0  0  0  0
    8.7067   -7.6520    0.0000 C   0  0  0  0  0  0  0  0  0  0  0  0
    8.1439   -9.3563    0.0000 O   0  0  0  0  0  0  0  0  0  0  0  0
    6.3491   -9.3478    0.0000 O   0  0  0  0  0  0  0  0  0  0  0  0
    7.9209   -7.9032    0.0000 C   0  0  1  0  0  0  0  0  0  0  0  0
    7.6622   -8.6866    0.0000 C   0  0  2  0  0  0  0  0  0  0  0  0
    6.8372   -8.6827    0.0000 C   0  0  1  0  0  0  0  0  0  0  0  0
    6.5860   -7.8968    0.0000 C   0  0  2  0  0  0  0  0  0  0  0  0
    7.2557   -7.4151    0.0000 O   0  0  0  0  0  0  0  0  0  0  0  0
    4.4035   -7.9286    0.0000 C   0  0  0  0  0  0  0  0  0  0  0  0
    3.7878   -8.4777    0.0000 C   0  0  0  0  0  0  0  0  0  0  0  0
    4.2358   -7.1208    0.0000 O   0  0  0  0  0  0  0  0  0  0  0  0
   10.1030   -7.9557    0.0000 C   0  0  0  0  0  0  0  0  0  0  0  0
   10.7134   -8.5107    0.0000 C   0  0  0  0  0  0  0  0  0  0  0  0
   10.2783   -7.1496    0.0000 O   0  0  0  0  0  0  0  0  0  0  0  0
    6.6811  -10.1031    0.0000 C   0  0  0  0  0  0  0  0  0  0  0  0
    7.8048  -10.1084    0.0000 C   0  0  0  0  0  0  0  0  0  0  0  0
 10  2  1  1  0  0  0
  2  1  1  0  0  0  0
  7  4  1  1  0  0  0
  4  3  1  0  0  0  0
  8  5  1  1  0  0  0
  9  6  1  6  0  0  0
 11  7  1  0  0  0  0
  8  7  1  0  0  0  0
  9  8  1  0  0  0  0
 10  9  1  0  0  0  0
 11 10  1  0  0  0  0
  1 12  1  0  0  0  0
 12 13  1  0  0  0  0
 12 14  2  0  0  0  0
  3 15  1  0  0  0  0
 15 16  1  0  0  0  0
 15 17  2  0  0  0  0
  6 18  1  0  0  0  0
  5 19  1  0  0  0  0
M  END
>  <cdx:fragmentId>
5

$$$$
