9936.cdx
  Mrv1902 05222410252D          

 63 69  0  0  0  0            999 V2000
    4.4738   -3.1534    0.0000 C   0  0  2  0  0  0  0  0  0  0  0  0
    4.8339   -3.8957    0.0000 C   0  0  1  0  0  0  0  0  0  0  0  0
    4.4781   -4.6400    0.0000 C   0  0  1  0  0  0  0  0  0  0  0  0
    3.6743   -4.8260    0.0000 C   0  0  1  0  0  0  0  0  0  0  0  0
    3.0278   -4.3135    0.0000 C   0  0  1  0  0  0  0  0  0  0  0  0
    3.0254   -3.4885    0.0000 C   0  0  2  0  0  0  0  0  0  0  0  0
    3.6689   -2.9722    0.0000 C   0  0  2  0  0  0  0  0  0  0  0  0
    2.3146   -4.7280    0.0000 C   0  0  2  0  0  0  0  0  0  0  0  0
    1.5989   -4.3176    0.0000 C   0  0  0  0  0  0  0  0  0  0  0  0
    1.5965   -3.4926    0.0000 C   0  0  0  0  0  0  0  0  0  0  0  0
    2.3097   -3.0780    0.0000 C   0  0  0  0  0  0  0  0  0  0  0  0
    3.5926   -2.1507    0.0000 C   0  0  0  0  0  0  0  0  0  0  0  0
    4.3502   -1.8243    0.0000 C   0  0  1  0  0  0  0  0  0  0  0  0
    4.8948   -2.4440    0.0000 C   0  0  2  0  0  0  0  0  0  0  0  0
    2.3170   -5.5530    0.0000 C   0  0  0  0  0  0  0  0  0  0  0  0
    1.6037   -5.9676    0.0000 O   0  0  0  0  0  0  0  0  0  0  0  0
    1.6061   -6.7926    0.0000 C   0  0  0  0  0  0  0  0  0  0  0  0
    3.0250   -2.8325    0.0000 C   0  0  0  0  0  0  0  0  0  0  0  0
    2.3100   -3.8500    0.0000 N   0  0  0  0  0  0  0  0  0  0  0  0
    1.5950   -5.0325    0.0000 C   0  0  0  0  0  0  0  0  0  0  0  0
    5.6325   -3.6885    0.0000 C   0  0  2  0  0  0  0  0  0  0  0  0
    5.6650   -2.0075    0.0000 C   0  0  2  0  0  0  0  0  0  0  0  0
    5.0474   -4.6926    0.0000 O   0  0  0  0  0  0  0  0  0  0  0  0
    6.3800   -2.4475    0.0000 O   0  0  0  0  0  0  0  0  0  0  0  0
    3.0212   -5.1384    0.0000 H   0  0  0  0  0  0  0  0  0  0  0  0
    3.0856   -2.3888    0.0000 H   0  0  0  0  0  0  0  0  0  0  0  0
    5.2987   -3.1600    0.0000 H   0  0  0  0  0  0  0  0  0  0  0  0
    4.4781   -5.4650    0.0000 H   0  0  0  0  0  0  0  0  0  0  0  0
    1.1275   -3.8500    0.0000 C   0  0  0  0  0  0  0  0  0  0  0  0
    6.3795   -1.5950    0.0000 O   0  0  0  0  0  0  0  0  0  0  0  0
    6.3795   -0.7700    0.0000 C   0  0  0  0  0  0  0  0  0  0  0  0
    3.6743   -5.6510    0.0000 O   0  0  0  0  0  0  0  0  0  0  0  0
    2.9599   -6.0635    0.0000 C   0  0  0  0  0  0  0  0  0  0  0  0
    7.0945   -2.8600    0.0000 C   0  0  0  0  0  0  0  0  0  0  0  0
    7.8089   -2.4475    0.0000 C   0  0  0  0  0  0  0  0  0  0  0  0
    7.0945   -3.6850    0.0000 O   0  0  0  0  0  0  0  0  0  0  0  0
    8.5234   -2.8600    0.0000 C   0  0  0  0  0  0  0  0  0  0  0  0
    9.2379   -2.4475    0.0000 C   0  0  0  0  0  0  0  0  0  0  0  0
    9.2379   -1.6225    0.0000 C   0  0  0  0  0  0  0  0  0  0  0  0
    8.5234   -1.2100    0.0000 C   0  0  0  0  0  0  0  0  0  0  0  0
    7.8089   -1.6225    0.0000 C   0  0  0  0  0  0  0  0  0  0  0  0
    6.4293   -3.9021    0.0000 O   0  0  0  0  0  0  0  0  0  0  0  0
    5.8397   -4.9017    0.0000 C   0  0  0  0  0  0  0  0  0  0  0  0
    6.0532   -5.6986    0.0000 C   0  0  0  0  0  0  0  0  0  0  0  0
    6.4231   -4.3183    0.0000 O   0  0  0  0  0  0  0  0  0  0  0  0
    6.8501   -5.9121    0.0000 C   0  0  0  0  0  0  0  0  0  0  0  0
    7.0636   -6.7090    0.0000 C   0  0  0  0  0  0  0  0  0  0  0  0
    7.8605   -6.9225    0.0000 C   0  0  0  0  0  0  0  0  0  0  0  0
    8.0740   -7.7194    0.0000 C   0  0  0  0  0  0  0  0  0  0  0  0
    8.8709   -7.9329    0.0000 C   0  0  0  0  0  0  0  0  0  0  0  0
    9.0845   -8.7298    0.0000 C   0  0  0  0  0  0  0  0  0  0  0  0
    9.8813   -8.9433    0.0000 C   0  0  0  0  0  0  0  0  0  0  0  0
   10.0306   -9.7547    0.0000 C   0  0  0  0  0  0  0  0  0  0  0  0
    9.4025  -10.2897    0.0000 C   0  0  0  0  0  0  0  0  0  0  0  0
    9.5518  -11.1010    0.0000 C   0  0  0  0  0  0  0  0  0  0  0  0
    8.9237  -11.6360    0.0000 C   0  0  0  0  0  0  0  0  0  0  0  0
    8.1464  -11.3595    0.0000 C   0  0  0  0  0  0  0  0  0  0  0  0
    7.5183  -11.8945    0.0000 C   0  0  0  0  0  0  0  0  0  0  0  0
    6.7410  -11.6180    0.0000 C   0  0  0  0  0  0  0  0  0  0  0  0
    6.5918  -10.8066    0.0000 C   0  0  0  0  0  0  0  0  0  0  0  0
    5.8145  -10.5302    0.0000 C   0  0  0  0  0  0  0  0  0  0  0  0
    0.5441   -3.2666    0.0000 C   0  0  0  0  0  0  0  0  0  0  0  0
    4.3502   -0.9993    0.0000 O   0  0  0  0  0  0  0  0  0  0  0  0
  1  2  1  0  0  0  0
  2  3  1  0  0  0  0
  3  4  1  0  0  0  0
  4  5  1  0  0  0  0
  5  6  1  0  0  0  0
  6  7  1  0  0  0  0
  7  1  1  0  0  0  0
  5  8  1  0  0  0  0
  8  9  1  0  0  0  0
  9 10  1  0  0  0  0
 10 11  1  0  0  0  0
  6 11  1  1  0  0  0
  7 12  1  0  0  0  0
 12 13  1  0  0  0  0
 13 14  1  0  0  0  0
 14  1  1  0  0  0  0
  8 15  1  1  0  0  0
 15 16  1  0  0  0  0
 16 17  1  0  0  0  0
  6 18  1  0  0  0  0
  3 18  1  0  0  0  0
 18 19  1  0  0  0  0
 19 20  1  0  0  0  0
  8 20  1  0  0  0  0
  2 21  1  0  0  0  0
 13 22  1  0  0  0  0
 22 21  1  0  0  0  0
  2 23  1  1  0  0  0
 14 24  1  6  0  0  0
  5 25  1  1  0  0  0
  7 26  1  1  0  0  0
  1 27  1  1  0  0  0
  3 28  1  6  0  0  0
 19 29  1  0  0  0  0
 22 30  1  1  0  0  0
 30 31  1  0  0  0  0
  4 32  1  6  0  0  0
 32 33  1  0  0  0  0
 24 34  1  0  0  0  0
 34 35  1  0  0  0  0
 34 36  2  0  0  0  0
 35 37  2  0  0  0  0
 37 38  1  0  0  0  0
 38 39  2  0  0  0  0
 39 40  1  0  0  0  0
 40 41  2  0  0  0  0
 41 35  1  0  0  0  0
 21 42  1  6  0  0  0
 43 44  1  0  0  0  0
 43 45  2  0  0  0  0
 23 43  1  0  0  0  0
 44 46  1  0  0  0  0
 46 47  1  0  0  0  0
 47 48  1  0  0  0  0
 48 49  1  0  0  0  0
 49 50  1  0  0  0  0
 50 51  1  0  0  0  0
 51 52  1  0  0  0  0
 52 53  2  0  0  0  0
 53 54  1  0  0  0  0
 54 55  1  0  0  0  0
 55 56  2  0  0  0  0
 56 57  1  0  0  0  0
 57 58  1  0  0  0  0
 58 59  2  0  0  0  0
 59 60  1  0  0  0  0
 60 61  1  0  0  0  0
 29 62  1  0  0  0  0
 13 63  1  1  0  0  0
M  END
>  <cdx:fragmentId>
491

$$$$
