99364.cdx
  Mrv1902 05222410192D          

 28 30  0  0  0  0            999 V2000
    5.2987   -8.1400    0.0000 C   0  0  2  0  0  0  0  0  0  0  0  0
    5.2987   -8.9650    0.0000 C   0  0  0  0  0  0  0  0  0  0  0  0
    6.0131   -9.3775    0.0000 O   0  0  0  0  0  0  0  0  0  0  0  0
    6.7276   -8.9650    0.0000 C   0  0  0  0  0  0  0  0  0  0  0  0
    6.7276   -8.1400    0.0000 C   0  0  0  0  0  0  0  0  0  0  0  0
    6.0131   -7.7275    0.0000 C   0  0  1  0  0  0  0  0  0  0  0  0
    7.4421   -9.3775    0.0000 C   0  0  0  0  0  0  0  0  0  0  0  0
    8.1566   -8.9650    0.0000 C   0  0  0  0  0  0  0  0  0  0  0  0
    8.1566   -8.1400    0.0000 C   0  0  0  0  0  0  0  0  0  0  0  0
    7.4421   -7.7275    0.0000 C   0  0  0  0  0  0  0  0  0  0  0  0
    8.8710   -9.3775    0.0000 O   0  0  0  0  0  0  0  0  0  0  0  0
    9.5855   -8.9650    0.0000 C   0  0  0  0  0  0  0  0  0  0  0  0
    9.5855   -8.1400    0.0000 C   0  0  0  0  0  0  0  0  0  0  0  0
    8.8710   -7.7275    0.0000 C   0  0  0  0  0  0  0  0  0  0  0  0
    4.4737   -8.9650    0.0000 C   0  0  0  0  0  0  0  0  0  0  0  0
    4.8862   -9.6795    0.0000 C   0  0  0  0  0  0  0  0  0  0  0  0
   10.3000   -9.3775    0.0000 O   0  0  0  0  0  0  0  0  0  0  0  0
    6.0131   -6.9025    0.0000 O   0  0  0  0  0  0  0  0  0  0  0  0
    3.1557   -7.7614    0.0000 C   0  0  0  0  0  0  0  0  0  0  0  0
    3.8993   -8.9816    0.0000 O   0  0  0  0  0  0  0  0  0  0  0  0
    3.8797   -8.1568    0.0000 C   0  0  0  0  0  0  0  0  0  0  0  0
    4.5842   -7.7275    0.0000 O   0  0  0  0  0  0  0  0  0  0  0  0
    5.3013   -6.4759    0.0000 C   0  0  0  0  0  0  0  0  0  0  0  0
    4.5865   -6.8878    0.0000 O   0  0  0  0  0  0  0  0  0  0  0  0
    5.3020   -5.6509    0.0000 C   0  0  0  0  0  0  0  0  0  0  0  0
    4.5878   -5.2378    0.0000 C   0  0  0  0  0  0  0  0  0  0  0  0
    6.0168   -5.2390    0.0000 C   0  0  0  0  0  0  0  0  0  0  0  0
    3.8730   -5.6497    0.0000 C   0  0  0  0  0  0  0  0  0  0  0  0
  1  2  1  0  0  0  0
  2  3  1  0  0  0  0
  3  4  1  0  0  0  0
  4  5  1  0  0  0  0
  5  6  1  0  0  0  0
  6  1  1  0  0  0  0
  4  7  2  0  0  0  0
  7  8  1  0  0  0  0
  8  9  2  0  0  0  0
  9 10  1  0  0  0  0
 10  5  2  0  0  0  0
  8 11  1  0  0  0  0
 11 12  1  0  0  0  0
 12 13  1  0  0  0  0
 13 14  2  0  0  0  0
 14  9  1  0  0  0  0
  2 15  1  0  0  0  0
  2 16  1  0  0  0  0
 12 17  2  0  0  0  0
 21 19  1  0  0  0  0
  1 22  1  1  0  0  0
  6 18  1  6  0  0  0
 21 20  2  0  0  0  0
 22 21  1  0  0  0  0
 23 24  2  0  0  0  0
 23 25  1  0  0  0  0
 25 26  2  0  0  0  0
 25 27  1  0  0  0  0
 26 28  1  0  0  0  0
 23 18  1  0  0  0  0
M  END
>  <cdx:fragmentId>
5

$$$$
