99362.cdx
  Mrv1902 05222410202D          

 25 27  0  0  0  0            999 V2000
    5.2162   -8.3187    0.0000 C   0  0  2  0  0  0  0  0  0  0  0  0
    5.2162   -9.1438    0.0000 C   0  0  0  0  0  0  0  0  0  0  0  0
    5.9306   -9.5563    0.0000 O   0  0  0  0  0  0  0  0  0  0  0  0
    6.6451   -9.1438    0.0000 C   0  0  0  0  0  0  0  0  0  0  0  0
    6.6451   -8.3187    0.0000 C   0  0  0  0  0  0  0  0  0  0  0  0
    5.9306   -7.9063    0.0000 C   0  0  1  0  0  0  0  0  0  0  0  0
    7.3596   -9.5563    0.0000 C   0  0  0  0  0  0  0  0  0  0  0  0
    8.0741   -9.1438    0.0000 C   0  0  0  0  0  0  0  0  0  0  0  0
    8.0741   -8.3187    0.0000 C   0  0  0  0  0  0  0  0  0  0  0  0
    7.3596   -7.9063    0.0000 C   0  0  0  0  0  0  0  0  0  0  0  0
    8.7885   -9.5563    0.0000 O   0  0  0  0  0  0  0  0  0  0  0  0
    9.5030   -9.1438    0.0000 C   0  0  0  0  0  0  0  0  0  0  0  0
    9.5030   -8.3187    0.0000 C   0  0  0  0  0  0  0  0  0  0  0  0
    8.7885   -7.9063    0.0000 C   0  0  0  0  0  0  0  0  0  0  0  0
    4.3912   -9.1438    0.0000 C   0  0  0  0  0  0  0  0  0  0  0  0
    4.8037   -9.8582    0.0000 C   0  0  0  0  0  0  0  0  0  0  0  0
   10.2175   -9.5563    0.0000 O   0  0  0  0  0  0  0  0  0  0  0  0
    4.5017   -7.9063    0.0000 O   0  0  0  0  0  0  0  0  0  0  0  0
    5.9306   -7.0812    0.0000 O   0  0  0  0  0  0  0  0  0  0  0  0
    5.2138   -6.6516    0.0000 C   0  0  0  0  0  0  0  0  0  0  0  0
    4.4990   -7.0635    0.0000 O   0  0  0  0  0  0  0  0  0  0  0  0
    5.2144   -5.8266    0.0000 C   0  0  0  0  0  0  0  0  0  0  0  0
    4.5003   -5.4135    0.0000 C   0  0  0  0  0  0  0  0  0  0  0  0
    5.9292   -5.4146    0.0000 C   0  0  0  0  0  0  0  0  0  0  0  0
    3.7855   -5.8254    0.0000 C   0  0  0  0  0  0  0  0  0  0  0  0
  1  2  1  0  0  0  0
  2  3  1  0  0  0  0
  3  4  1  0  0  0  0
  4  5  1  0  0  0  0
  5  6  1  0  0  0  0
  6  1  1  0  0  0  0
  4  7  2  0  0  0  0
  7  8  1  0  0  0  0
  8  9  2  0  0  0  0
  9 10  1  0  0  0  0
 10  5  2  0  0  0  0
  8 11  1  0  0  0  0
 11 12  1  0  0  0  0
 12 13  1  0  0  0  0
 13 14  2  0  0  0  0
 14  9  1  0  0  0  0
  2 15  1  0  0  0  0
  2 16  1  0  0  0  0
 12 17  2  0  0  0  0
  1 18  1  1  0  0  0
  6 19  1  6  0  0  0
 20 21  2  0  0  0  0
 20 22  1  0  0  0  0
 22 23  2  0  0  0  0
 22 24  1  0  0  0  0
 23 25  1  0  0  0  0
 20 19  1  0  0  0  0
M  END
>  <cdx:fragmentId>
5

$$$$
