99365.cdx
  Mrv1902 05222410192D          

 19 20  0  0  0  0            999 V2000
    5.0237   -6.6962    0.0000 C   0  0  0  0  0  0  0  0  0  0  0  0
    5.0237   -7.5213    0.0000 C   0  0  0  0  0  0  0  0  0  0  0  0
    5.7381   -7.9337    0.0000 C   0  0  2  0  0  0  0  0  0  0  0  0
    6.4526   -7.5213    0.0000 C   0  0  2  0  0  0  0  0  0  0  0  0
    6.4526   -6.6962    0.0000 C   0  0  1  0  0  0  0  0  0  0  0  0
    5.7381   -6.2837    0.0000 C   0  0  0  0  0  0  0  0  0  0  0  0
    7.1671   -7.9337    0.0000 C   0  0  0  0  0  0  0  0  0  0  0  0
    7.8816   -7.5213    0.0000 C   0  0  2  0  0  0  0  0  0  0  0  0
    7.8816   -6.6962    0.0000 C   0  0  0  0  0  0  0  0  0  0  0  0
    7.1671   -6.2837    0.0000 C   0  0  1  0  0  0  0  0  0  0  0  0
    6.1506   -8.6482    0.0000 C   0  0  0  0  0  0  0  0  0  0  0  0
    6.4526   -5.8712    0.0000 C   0  0  0  0  0  0  0  0  0  0  0  0
    7.1671   -5.4588    0.0000 O   0  0  0  0  0  0  0  0  0  0  0  0
    8.5960   -7.9337    0.0000 C   0  0  0  0  0  0  0  0  0  0  0  0
    5.3256   -8.6482    0.0000 O   0  0  0  0  0  0  0  0  0  0  0  0
    6.4526   -8.3462    0.0000 H   0  0  0  0  0  0  0  0  0  0  0  0
    9.3105   -7.5213    0.0000 C   0  0  0  0  0  0  0  0  0  0  0  0
    8.5960   -8.7588    0.0000 C   0  0  0  0  0  0  0  0  0  0  0  0
    9.3105   -8.3462    0.0000 O   0  0  0  0  0  0  0  0  0  0  0  0
  1  2  1  0  0  0  0
  2  3  1  0  0  0  0
  3  4  1  0  0  0  0
  4  5  1  0  0  0  0
  5  6  1  0  0  0  0
  6  1  1  0  0  0  0
  4  7  1  0  0  0  0
  7  8  1  0  0  0  0
  8  9  1  0  0  0  0
  9 10  1  0  0  0  0
 10  5  1  0  0  0  0
  3 11  1  6  0  0  0
  5 12  1  6  0  0  0
 10 13  1  6  0  0  0
  8 14  1  6  0  0  0
  3 15  1  1  0  0  0
  4 16  1  1  0  0  0
 14 17  1  0  0  0  0
 14 18  1  0  0  0  0
 14 19  1  0  0  0  0
M  END
>  <cdx:fragmentId>
5

$$$$
