99363.cdx
  Mrv1902 05222410202D          

 22 24  0  0  0  0            999 V2000
    5.2987   -8.1400    0.0000 C   0  0  2  0  0  0  0  0  0  0  0  0
    5.2987   -8.9650    0.0000 C   0  0  0  0  0  0  0  0  0  0  0  0
    6.0131   -9.3775    0.0000 O   0  0  0  0  0  0  0  0  0  0  0  0
    6.7276   -8.9650    0.0000 C   0  0  0  0  0  0  0  0  0  0  0  0
    6.7276   -8.1400    0.0000 C   0  0  0  0  0  0  0  0  0  0  0  0
    6.0131   -7.7275    0.0000 C   0  0  1  0  0  0  0  0  0  0  0  0
    7.4421   -9.3775    0.0000 C   0  0  0  0  0  0  0  0  0  0  0  0
    8.1566   -8.9650    0.0000 C   0  0  0  0  0  0  0  0  0  0  0  0
    8.1566   -8.1400    0.0000 C   0  0  0  0  0  0  0  0  0  0  0  0
    7.4421   -7.7275    0.0000 C   0  0  0  0  0  0  0  0  0  0  0  0
    8.8710   -9.3775    0.0000 O   0  0  0  0  0  0  0  0  0  0  0  0
    9.5855   -8.9650    0.0000 C   0  0  0  0  0  0  0  0  0  0  0  0
    9.5855   -8.1400    0.0000 C   0  0  0  0  0  0  0  0  0  0  0  0
    8.8710   -7.7275    0.0000 C   0  0  0  0  0  0  0  0  0  0  0  0
    4.4737   -8.9650    0.0000 C   0  0  0  0  0  0  0  0  0  0  0  0
    4.8862   -9.6795    0.0000 C   0  0  0  0  0  0  0  0  0  0  0  0
   10.3000   -9.3775    0.0000 O   0  0  0  0  0  0  0  0  0  0  0  0
    4.5842   -7.7275    0.0000 O   0  0  0  0  0  0  0  0  0  0  0  0
    6.0131   -6.9025    0.0000 O   0  0  0  0  0  0  0  0  0  0  0  0
    3.1553   -7.7275    0.0000 C   0  0  0  0  0  0  0  0  0  0  0  0
    3.8697   -8.9650    0.0000 O   0  0  0  0  0  0  0  0  0  0  0  0
    3.8697   -8.1400    0.0000 C   0  0  0  0  0  0  0  0  0  0  0  0
  1  2  1  0  0  0  0
  2  3  1  0  0  0  0
  3  4  1  0  0  0  0
  4  5  1  0  0  0  0
  5  6  1  0  0  0  0
  6  1  1  0  0  0  0
  4  7  2  0  0  0  0
  7  8  1  0  0  0  0
  8  9  2  0  0  0  0
  9 10  1  0  0  0  0
 10  5  2  0  0  0  0
  8 11  1  0  0  0  0
 11 12  1  0  0  0  0
 12 13  1  0  0  0  0
 13 14  2  0  0  0  0
 14  9  1  0  0  0  0
  2 15  1  0  0  0  0
  2 16  1  0  0  0  0
 12 17  2  0  0  0  0
  1 18  1  1  0  0  0
  6 19  1  6  0  0  0
 22 20  1  0  0  0  0
 18 22  1  0  0  0  0
 22 21  2  0  0  0  0
M  END
>  <cdx:fragmentId>
5

$$$$
