99371.cdx
  Mrv1902 05222410192D          

 37 40  0  0  0  0            999 V2000
    7.3612   -8.4700    0.0000 C   0  0  0  0  0  0  0  0  0  0  0  0
    7.3612   -9.2950    0.0000 C   0  0  0  0  0  0  0  0  0  0  0  0
    8.0756   -9.7075    0.0000 C   0  0  0  0  0  0  0  0  0  0  0  0
    8.7901   -9.2950    0.0000 C   0  0  0  0  0  0  0  0  0  0  0  0
    8.7901   -8.4700    0.0000 C   0  0  0  0  0  0  0  0  0  0  0  0
    8.0756   -8.0575    0.0000 C   0  0  0  0  0  0  0  0  0  0  0  0
    9.5046   -9.7075    0.0000 C   0  0  0  0  0  0  0  0  0  0  0  0
   10.2191   -9.2950    0.0000 C   0  0  0  0  0  0  0  0  0  0  0  0
   10.2191   -8.4700    0.0000 C   0  0  0  0  0  0  0  0  0  0  0  0
    9.5046   -8.0575    0.0000 O   0  0  0  0  0  0  0  0  0  0  0  0
   11.6480   -8.4700    0.0000 C   0  0  0  0  0  0  0  0  0  0  0  0
   10.9335   -8.0575    0.0000 C   0  0  0  0  0  0  0  0  0  0  0  0
   12.3625   -8.0575    0.0000 C   0  0  0  0  0  0  0  0  0  0  0  0
   12.3625   -7.2325    0.0000 C   0  0  0  0  0  0  0  0  0  0  0  0
   11.6480   -6.8200    0.0000 C   0  0  0  0  0  0  0  0  0  0  0  0
   10.9335   -7.2325    0.0000 C   0  0  0  0  0  0  0  0  0  0  0  0
   13.0769   -6.8200    0.0000 O   0  0  0  0  0  0  0  0  0  0  0  0
    9.5046  -10.5325    0.0000 O   0  0  0  0  0  0  0  0  0  0  0  0
    8.0756  -10.5325    0.0000 O   0  0  0  0  0  0  0  0  0  0  0  0
    6.6467   -8.0575    0.0000 O   0  0  0  0  0  0  0  0  0  0  0  0
    4.5009   -8.4647    0.0000 C   0  0  2  0  0  0  0  0  0  0  0  0
    4.5009   -9.2897    0.0000 C   0  0  2  0  0  0  0  0  0  0  0  0
    5.2154   -9.7022    0.0000 C   0  0  1  0  0  0  0  0  0  0  0  0
    5.9299   -9.2897    0.0000 C   0  0  2  0  0  0  0  0  0  0  0  0
    5.9299   -8.4647    0.0000 C   0  0  1  0  0  0  0  0  0  0  0  0
    5.2154   -8.0522    0.0000 O   0  0  0  0  0  0  0  0  0  0  0  0
    3.7864   -8.0522    0.0000 C   0  0  0  0  0  0  0  0  0  0  0  0
    5.2154  -10.5272    0.0000 O   0  0  0  0  0  0  0  0  0  0  0  0
    3.7864   -9.7022    0.0000 O   0  0  0  0  0  0  0  0  0  0  0  0
    6.6443   -9.7022    0.0000 O   0  0  0  0  0  0  0  0  0  0  0  0
    3.0720   -8.4647    0.0000 C   0  0  0  0  0  0  0  0  0  0  0  0
    2.3575   -8.0522    0.0000 O   0  0  0  0  0  0  0  0  0  0  0  0
    3.0720   -9.2897    0.0000 O   0  0  0  0  0  0  0  0  0  0  0  0
    2.3575   -7.2272    0.0000 C   0  0  0  0  0  0  0  0  0  0  0  0
    1.6430   -6.8147    0.0000 C   0  0  0  0  0  0  0  0  0  0  0  0
    1.6430   -5.9897    0.0000 C   0  0  0  0  0  0  0  0  0  0  0  0
    0.9286   -5.5772    0.0000 C   0  0  0  0  0  0  0  0  0  0  0  0
  1  2  2  0  0  0  0
  2  3  1  0  0  0  0
  3  4  2  0  0  0  0
  4  5  1  0  0  0  0
  5  6  2  0  0  0  0
  6  1  1  0  0  0  0
  4  7  1  0  0  0  0
  7  8  1  0  0  0  0
  8  9  2  0  0  0  0
  9 10  1  0  0  0  0
 10  5  1  0  0  0  0
 11 12  2  0  0  0  0
 12  9  1  0  0  0  0
 11 13  1  0  0  0  0
 13 14  2  0  0  0  0
 14 15  1  0  0  0  0
 15 16  2  0  0  0  0
 16 12  1  0  0  0  0
 14 17  1  0  0  0  0
  7 18  2  0  0  0  0
  3 19  1  0  0  0  0
  1 20  1  0  0  0  0
 21 22  1  0  0  0  0
 22 23  1  0  0  0  0
 23 24  1  0  0  0  0
 24 25  1  0  0  0  0
 25 26  1  0  0  0  0
 26 21  1  0  0  0  0
 21 27  1  1  0  0  0
 23 28  1  1  0  0  0
 22 29  1  6  0  0  0
 24 30  1  6  0  0  0
 27 31  1  0  0  0  0
 25 20  1  1  0  0  0
 31 32  1  0  0  0  0
 31 33  2  0  0  0  0
 32 34  1  0  0  0  0
 34 35  1  0  0  0  0
 35 36  1  0  0  0  0
 36 37  1  0  0  0  0
M  END
>  <cdx:fragmentId>
5

$$$$
