99378.cdx
  Mrv1902 05222410272D          

 57 60  0  0  0  0            999 V2000
    7.6617   -4.9952    0.0000 C   0  0  0  0  0  0  0  0  0  0  0  0
    8.2711   -5.1745    0.0000 C   0  0  0  0  0  0  0  0  0  0  0  0
    8.4206   -5.7919    0.0000 C   0  0  0  0  0  0  0  0  0  0  0  0
    9.0300   -5.9712    0.0000 C   0  0  0  0  0  0  0  0  0  0  0  0
    9.1794   -6.5886    0.0000 C   0  0  0  0  0  0  0  0  0  0  0  0
    9.7889   -6.7679    0.0000 C   0  0  0  0  0  0  0  0  0  0  0  0
    9.9383   -7.3853    0.0000 C   0  0  0  0  0  0  0  0  0  0  0  0
   10.5478   -7.5646    0.0000 C   0  0  0  0  0  0  0  0  0  0  0  0
   10.6972   -8.1820    0.0000 C   0  0  0  0  0  0  0  0  0  0  0  0
   11.3067   -8.3613    0.0000 C   0  0  0  0  0  0  0  0  0  0  0  0
   11.4561   -8.9787    0.0000 C   0  0  0  0  0  0  0  0  0  0  0  0
   12.0656   -9.1579    0.0000 C   0  0  0  0  0  0  0  0  0  0  0  0
    8.2413   -6.4014    0.0000 O   0  0  0  0  0  0  0  0  0  0  0  0
   10.9962   -9.4168    0.0000 C   0  0  0  0  0  0  0  0  0  0  0  0
    9.4784   -7.8235    0.0000 C   0  0  0  0  0  0  0  0  0  0  0  0
    7.8031   -5.9414    0.0000 C   0  0  0  0  0  0  0  0  0  0  0  0
    6.5941   -6.7236    0.0000 C   0  0  2  0  0  0  0  0  0  0  0  0
    6.5941   -7.3588    0.0000 C   0  0  2  0  0  0  0  0  0  0  0  0
    7.1442   -7.6765    0.0000 C   0  0  1  0  0  0  0  0  0  0  0  0
    7.6944   -7.3588    0.0000 C   0  0  2  0  0  0  0  0  0  0  0  0
    7.6944   -6.7236    0.0000 C   0  0  1  0  0  0  0  0  0  0  0  0
    7.1442   -6.4060    0.0000 O   0  0  0  0  0  0  0  0  0  0  0  0
    6.0439   -6.4060    0.0000 C   0  0  0  0  0  0  0  0  0  0  0  0
    7.1442   -8.3117    0.0000 O   0  0  0  0  0  0  0  0  0  0  0  0
    6.0439   -7.6765    0.0000 O   0  0  0  0  0  0  0  0  0  0  0  0
    8.2445   -7.6765    0.0000 O   0  0  0  0  0  0  0  0  0  0  0  0
    5.4938   -6.7236    0.0000 O   0  0  0  0  0  0  0  0  0  0  0  0
    4.3990   -5.4507    0.0000 C   0  0  1  0  0  0  0  0  0  0  0  0
    3.8478   -5.7665    0.0000 C   0  0  1  0  0  0  0  0  0  0  0  0
    3.8457   -6.4018    0.0000 C   0  0  2  0  0  0  0  0  0  0  0  0
    4.3948   -6.7212    0.0000 C   0  0  2  0  0  0  0  0  0  0  0  0
    4.9460   -6.4054    0.0000 C   0  0  1  0  0  0  0  0  0  0  0  0
    4.9481   -5.7702    0.0000 O   0  0  0  0  0  0  0  0  0  0  0  0
    3.2988   -5.4471    0.0000 O   0  0  0  0  0  0  0  0  0  0  0  0
    4.4012   -4.8155    0.0000 C   0  0  0  0  0  0  0  0  0  0  0  0
    3.2945   -6.7176    0.0000 O   0  0  0  0  0  0  0  0  0  0  0  0
    4.3927   -7.3565    0.0000 O   0  0  0  0  0  0  0  0  0  0  0  0
    7.6912   -9.2643    0.0000 C   0  0  1  0  0  0  0  0  0  0  0  0
    8.2426   -9.5799    0.0000 C   0  0  1  0  0  0  0  0  0  0  0  0
    8.7915   -9.2603    0.0000 C   0  0  2  0  0  0  0  0  0  0  0  0
    8.7892   -8.6251    0.0000 C   0  0  2  0  0  0  0  0  0  0  0  0
    8.2379   -8.3094    0.0000 C   0  0  1  0  0  0  0  0  0  0  0  0
    7.6889   -8.6291    0.0000 O   0  0  0  0  0  0  0  0  0  0  0  0
    8.2449  -10.2152    0.0000 O   0  0  0  0  0  0  0  0  0  0  0  0
    7.1423   -9.5840    0.0000 C   0  0  0  0  0  0  0  0  0  0  0  0
    9.3428   -9.5759    0.0000 O   0  0  0  0  0  0  0  0  0  0  0  0
    9.3382   -8.3054    0.0000 O   0  0  0  0  0  0  0  0  0  0  0  0
    6.6024  -10.5245    0.0000 C   0  0  1  0  0  0  0  0  0  0  0  0
    6.6024  -11.1598    0.0000 C   0  0  1  0  0  0  0  0  0  0  0  0
    7.1525  -11.4774    0.0000 C   0  0  2  0  0  0  0  0  0  0  0  0
    7.7026  -11.1598    0.0000 C   0  0  2  0  0  0  0  0  0  0  0  0
    7.7026  -10.5245    0.0000 C   0  0  1  0  0  0  0  0  0  0  0  0
    7.1525  -10.2069    0.0000 O   0  0  0  0  0  0  0  0  0  0  0  0
    6.0522  -11.4774    0.0000 O   0  0  0  0  0  0  0  0  0  0  0  0
    6.0522  -10.2069    0.0000 C   0  0  0  0  0  0  0  0  0  0  0  0
    7.1525  -12.1126    0.0000 O   0  0  0  0  0  0  0  0  0  0  0  0
    8.2528  -11.4774    0.0000 O   0  0  0  0  0  0  0  0  0  0  0  0
  1  2  2  0  0  0  0
  2  3  1  0  0  0  0
  3  4  1  0  0  0  0
  4  5  1  0  0  0  0
  5  6  1  0  0  0  0
  6  7  2  0  0  0  0
  7  8  1  0  0  0  0
  8  9  1  0  0  0  0
  9 10  1  0  0  0  0
 10 11  2  0  0  0  0
 11 12  1  0  0  0  0
  3 13  1  0  0  0  0
 11 14  1  0  0  0  0
  7 15  1  0  0  0  0
  3 16  1  0  0  0  0
 17 18  1  0  0  0  0
 18 19  1  0  0  0  0
 19 20  1  0  0  0  0
 20 21  1  0  0  0  0
 21 22  1  0  0  0  0
 22 17  1  0  0  0  0
 17 23  1  1  0  0  0
 19 24  1  1  0  0  0
 18 25  1  6  0  0  0
 20 26  1  6  0  0  0
 23 27  1  0  0  0  0
 28 29  1  0  0  0  0
 29 30  1  0  0  0  0
 30 31  1  0  0  0  0
 31 32  1  0  0  0  0
 32 33  1  0  0  0  0
 33 28  1  0  0  0  0
 29 34  1  1  0  0  0
 28 35  1  6  0  0  0
 30 36  1  6  0  0  0
 31 37  1  6  0  0  0
 32 27  1  1  0  0  0
 38 39  1  0  0  0  0
 39 40  1  0  0  0  0
 40 41  1  0  0  0  0
 41 42  1  0  0  0  0
 42 43  1  0  0  0  0
 43 38  1  0  0  0  0
 39 44  1  1  0  0  0
 38 45  1  6  0  0  0
 40 46  1  6  0  0  0
 41 47  1  6  0  0  0
 48 49  1  0  0  0  0
 49 50  1  0  0  0  0
 50 51  1  0  0  0  0
 51 52  1  0  0  0  0
 52 53  1  0  0  0  0
 53 48  1  0  0  0  0
 49 54  1  1  0  0  0
 48 55  1  6  0  0  0
 50 56  1  6  0  0  0
 51 57  1  6  0  0  0
 42 26  1  1  0  0  0
 52 44  1  1  0  0  0
 21 13  1  1  0  0  0
M  END
>  <cdx:fragmentId>
336

$$$$
