99375.cdx
  Mrv1902 05222410192D          

 24 25  0  0  0  0            999 V2000
    5.2401   -6.1388    0.0000 C   0  0  0  0  0  0  0  0  0  0  0  0
    5.9546   -6.5513    0.0000 O   0  0  0  0  0  0  0  0  0  0  0  0
    5.9546   -7.3763    0.0000 C   0  0  0  0  0  0  0  0  0  0  0  0
    5.2401   -7.7888    0.0000 C   0  0  0  0  0  0  0  0  0  0  0  0
    5.2401   -8.6138    0.0000 C   0  0  0  0  0  0  0  0  0  0  0  0
    4.5256   -9.0263    0.0000 C   0  0  0  0  0  0  0  0  0  0  0  0
    3.8111   -8.6138    0.0000 C   0  0  0  0  0  0  0  0  0  0  0  0
    3.0967   -9.0263    0.0000 C   0  0  0  0  0  0  0  0  0  0  0  0
    5.9546   -9.0263    0.0000 C   0  0  0  0  0  0  0  0  0  0  0  0
    6.6690   -8.6138    0.0000 C   0  0  0  0  0  0  0  0  0  0  0  0
    6.6690   -7.7888    0.0000 C   0  0  0  0  0  0  0  0  0  0  0  0
    7.3835   -7.3763    0.0000 O   0  0  0  0  0  0  0  0  0  0  0  0
    7.3835   -9.0263    0.0000 C   0  0  0  0  0  0  0  0  0  0  0  0
    8.0980   -8.6138    0.0000 C   0  0  0  0  0  0  0  0  0  0  0  0
    8.8124   -9.0263    0.0000 C   0  0  0  0  0  0  0  0  0  0  0  0
    9.5269   -8.6138    0.0000 C   0  0  0  0  0  0  0  0  0  0  0  0
   10.2414   -9.0263    0.0000 C   0  0  0  0  0  0  0  0  0  0  0  0
   10.9558   -8.6138    0.0000 C   0  0  0  0  0  0  0  0  0  0  0  0
    8.8124   -9.8513    0.0000 C   0  0  0  0  0  0  0  0  0  0  0  0
    8.0980  -10.2638    0.0000 C   0  0  0  0  0  0  0  0  0  0  0  0
    8.0980  -11.0888    0.0000 O   0  0  0  0  0  0  0  0  0  0  0  0
    8.8124  -11.5013    0.0000 C   0  0  0  0  0  0  0  0  0  0  0  0
    7.3835   -9.8513    0.0000 C   0  0  0  0  0  0  0  0  0  0  0  0
    6.6690  -10.2638    0.0000 O   0  0  0  0  0  0  0  0  0  0  0  0
  1  2  1  0  0  0  0
  2  3  1  0  0  0  0
  3  4  2  0  0  0  0
  4  5  1  0  0  0  0
  5  6  1  0  0  0  0
  6  7  1  0  0  0  0
  7  8  2  0  0  0  0
  5  9  2  0  0  0  0
  9 10  1  0  0  0  0
 10 11  2  0  0  0  0
  3 11  1  0  0  0  0
 11 12  1  0  0  0  0
 10 13  1  0  0  0  0
 13 14  2  0  0  0  0
 14 15  1  0  0  0  0
 15 16  1  0  0  0  0
 16 17  1  0  0  0  0
 17 18  2  0  0  0  0
 15 19  2  0  0  0  0
 19 20  1  0  0  0  0
 20 21  1  0  0  0  0
 21 22  1  0  0  0  0
 20 23  2  0  0  0  0
 13 23  1  0  0  0  0
 23 24  1  0  0  0  0
M  END
>  <cdx:fragmentId>
9787

$$$$
