99377.cdx
  Mrv1902 05222410202D          

 70 74  0  0  0  0            999 V2000
    9.1329   -5.3115    0.0000 C   0  0  0  0  0  0  0  0  0  0  0  0
    9.7423   -5.4908    0.0000 C   0  0  0  0  0  0  0  0  0  0  0  0
    9.8918   -6.1082    0.0000 C   0  0  0  0  0  0  0  0  0  0  0  0
   10.5012   -6.2875    0.0000 C   0  0  0  0  0  0  0  0  0  0  0  0
   10.6507   -6.9049    0.0000 C   0  0  0  0  0  0  0  0  0  0  0  0
   11.2601   -7.0841    0.0000 C   0  0  0  0  0  0  0  0  0  0  0  0
   11.4096   -7.7016    0.0000 C   0  0  0  0  0  0  0  0  0  0  0  0
   12.0190   -7.8808    0.0000 C   0  0  0  0  0  0  0  0  0  0  0  0
   12.1685   -8.4982    0.0000 C   0  0  0  0  0  0  0  0  0  0  0  0
   12.7779   -8.6775    0.0000 C   0  0  0  0  0  0  0  0  0  0  0  0
   12.9274   -9.2949    0.0000 C   0  0  0  0  0  0  0  0  0  0  0  0
   13.5368   -9.4742    0.0000 C   0  0  0  0  0  0  0  0  0  0  0  0
    9.7125   -6.7176    0.0000 O   0  0  0  0  0  0  0  0  0  0  0  0
   12.4674   -9.7331    0.0000 C   0  0  0  0  0  0  0  0  0  0  0  0
   10.9496   -8.1397    0.0000 C   0  0  0  0  0  0  0  0  0  0  0  0
    9.2744   -6.2576    0.0000 C   0  0  0  0  0  0  0  0  0  0  0  0
    8.0653   -7.0398    0.0000 C   0  0  2  0  0  0  0  0  0  0  0  0
    8.0653   -7.6751    0.0000 C   0  0  2  0  0  0  0  0  0  0  0  0
    8.6155   -7.9927    0.0000 C   0  0  1  0  0  0  0  0  0  0  0  0
    9.1656   -7.6751    0.0000 C   0  0  2  0  0  0  0  0  0  0  0  0
    9.1656   -7.0398    0.0000 C   0  0  1  0  0  0  0  0  0  0  0  0
    8.6155   -6.7222    0.0000 O   0  0  0  0  0  0  0  0  0  0  0  0
    7.5152   -6.7222    0.0000 C   0  0  0  0  0  0  0  0  0  0  0  0
    8.6155   -8.6280    0.0000 O   0  0  0  0  0  0  0  0  0  0  0  0
    7.5152   -7.9927    0.0000 O   0  0  0  0  0  0  0  0  0  0  0  0
    9.7158   -7.9927    0.0000 O   0  0  0  0  0  0  0  0  0  0  0  0
    6.9650   -7.0398    0.0000 O   0  0  0  0  0  0  0  0  0  0  0  0
    5.8703   -5.7670    0.0000 C   0  0  1  0  0  0  0  0  0  0  0  0
    5.3191   -6.0828    0.0000 C   0  0  1  0  0  0  0  0  0  0  0  0
    5.3170   -6.7180    0.0000 C   0  0  2  0  0  0  0  0  0  0  0  0
    5.8661   -7.0375    0.0000 C   0  0  2  0  0  0  0  0  0  0  0  0
    6.4173   -6.7217    0.0000 C   0  0  1  0  0  0  0  0  0  0  0  0
    6.4194   -6.0864    0.0000 O   0  0  0  0  0  0  0  0  0  0  0  0
    4.7700   -5.7633    0.0000 O   0  0  0  0  0  0  0  0  0  0  0  0
    5.8724   -5.1317    0.0000 C   0  0  0  0  0  0  0  0  0  0  0  0
    4.7658   -7.0338    0.0000 O   0  0  0  0  0  0  0  0  0  0  0  0
    5.8639   -7.6727    0.0000 O   0  0  0  0  0  0  0  0  0  0  0  0
    4.2308   -6.7157    0.0000 O   0  0  0  0  0  0  0  0  0  0  0  0
    4.2308   -6.0804    0.0000 C   0  0  0  0  0  0  0  0  0  0  0  0
    3.6807   -5.7628    0.0000 C   0  0  0  0  0  0  0  0  0  0  0  0
    3.1305   -6.0804    0.0000 C   0  0  0  0  0  0  0  0  0  0  0  0
    0.9300   -6.7157    0.0000 C   0  0  0  0  0  0  0  0  0  0  0  0
    0.9300   -6.0804    0.0000 O   0  0  0  0  0  0  0  0  0  0  0  0
    0.9300   -4.8099    0.0000 O   0  0  0  0  0  0  0  0  0  0  0  0
    2.0302   -6.0804    0.0000 C   0  0  0  0  0  0  0  0  0  0  0  0
    2.5804   -5.7628    0.0000 C   0  0  0  0  0  0  0  0  0  0  0  0
    2.5804   -5.1276    0.0000 C   0  0  0  0  0  0  0  0  0  0  0  0
    2.0302   -4.8099    0.0000 C   0  0  0  0  0  0  0  0  0  0  0  0
    1.4801   -5.1276    0.0000 C   0  0  0  0  0  0  0  0  0  0  0  0
    1.4801   -5.7628    0.0000 C   0  0  0  0  0  0  0  0  0  0  0  0
    9.1625   -9.5806    0.0000 C   0  0  1  0  0  0  0  0  0  0  0  0
    9.7138   -9.8962    0.0000 C   0  0  1  0  0  0  0  0  0  0  0  0
   10.2628   -9.5766    0.0000 C   0  0  2  0  0  0  0  0  0  0  0  0
   10.2605   -8.9413    0.0000 C   0  0  2  0  0  0  0  0  0  0  0  0
    9.7092   -8.6257    0.0000 C   0  0  1  0  0  0  0  0  0  0  0  0
    9.1602   -8.9453    0.0000 O   0  0  0  0  0  0  0  0  0  0  0  0
    9.7161  -10.5314    0.0000 O   0  0  0  0  0  0  0  0  0  0  0  0
    8.6135   -9.9002    0.0000 C   0  0  0  0  0  0  0  0  0  0  0  0
   10.8141   -9.8922    0.0000 O   0  0  0  0  0  0  0  0  0  0  0  0
   10.8094   -8.6217    0.0000 O   0  0  0  0  0  0  0  0  0  0  0  0
    8.0736  -10.8408    0.0000 C   0  0  1  0  0  0  0  0  0  0  0  0
    8.0736  -11.4760    0.0000 C   0  0  1  0  0  0  0  0  0  0  0  0
    8.6238  -11.7936    0.0000 C   0  0  2  0  0  0  0  0  0  0  0  0
    9.1739  -11.4760    0.0000 C   0  0  2  0  0  0  0  0  0  0  0  0
    9.1739  -10.8408    0.0000 C   0  0  1  0  0  0  0  0  0  0  0  0
    8.6238  -10.5231    0.0000 O   0  0  0  0  0  0  0  0  0  0  0  0
    7.5235  -11.7936    0.0000 O   0  0  0  0  0  0  0  0  0  0  0  0
    7.5235  -10.5231    0.0000 C   0  0  0  0  0  0  0  0  0  0  0  0
    8.6238  -12.4289    0.0000 O   0  0  0  0  0  0  0  0  0  0  0  0
    9.7240  -11.7936    0.0000 O   0  0  0  0  0  0  0  0  0  0  0  0
  1  2  2  0  0  0  0
  2  3  1  0  0  0  0
  3  4  1  0  0  0  0
  4  5  1  0  0  0  0
  5  6  1  0  0  0  0
  6  7  2  0  0  0  0
  7  8  1  0  0  0  0
  8  9  1  0  0  0  0
  9 10  1  0  0  0  0
 10 11  2  0  0  0  0
 11 12  1  0  0  0  0
  3 13  1  0  0  0  0
 11 14  1  0  0  0  0
  7 15  1  0  0  0  0
  3 16  1  0  0  0  0
 17 18  1  0  0  0  0
 18 19  1  0  0  0  0
 19 20  1  0  0  0  0
 20 21  1  0  0  0  0
 21 22  1  0  0  0  0
 22 17  1  0  0  0  0
 17 23  1  1  0  0  0
 19 24  1  1  0  0  0
 18 25  1  6  0  0  0
 20 26  1  6  0  0  0
 23 27  1  0  0  0  0
 28 29  1  0  0  0  0
 29 30  1  0  0  0  0
 30 31  1  0  0  0  0
 31 32  1  0  0  0  0
 32 33  1  0  0  0  0
 33 28  1  0  0  0  0
 29 34  1  1  0  0  0
 28 35  1  6  0  0  0
 30 36  1  6  0  0  0
 31 37  1  6  0  0  0
 32 27  1  1  0  0  0
 39 38  2  0  0  0  0
 40 39  1  0  0  0  0
 41 40  2  0  0  0  0
 46 41  1  0  0  0  0
 43 42  1  0  0  0  0
 50 43  1  0  0  0  0
 49 44  1  0  0  0  0
 45 50  1  0  0  0  0
 46 45  2  0  0  0  0
 47 46  1  0  0  0  0
 48 47  2  0  0  0  0
 49 48  1  0  0  0  0
 50 49  2  0  0  0  0
 39 34  1  0  0  0  0
 51 52  1  0  0  0  0
 52 53  1  0  0  0  0
 53 54  1  0  0  0  0
 54 55  1  0  0  0  0
 55 56  1  0  0  0  0
 56 51  1  0  0  0  0
 52 57  1  1  0  0  0
 51 58  1  6  0  0  0
 53 59  1  6  0  0  0
 54 60  1  6  0  0  0
 61 62  1  0  0  0  0
 62 63  1  0  0  0  0
 63 64  1  0  0  0  0
 64 65  1  0  0  0  0
 65 66  1  0  0  0  0
 66 61  1  0  0  0  0
 62 67  1  1  0  0  0
 61 68  1  6  0  0  0
 63 69  1  6  0  0  0
 64 70  1  6  0  0  0
 55 26  1  1  0  0  0
 65 57  1  1  0  0  0
 21 13  1  1  0  0  0
M  END
>  <cdx:fragmentId>
336

$$$$
