99376.cdx
  Mrv1902 05222410202D          

 23 24  0  0  0  0            999 V2000
    3.7724   -7.7963    0.0000 C   0  0  0  0  0  0  0  0  0  0  0  0
    3.7724   -8.6212    0.0000 C   0  0  0  0  0  0  0  0  0  0  0  0
    4.4869   -9.0337    0.0000 C   0  0  0  0  0  0  0  0  0  0  0  0
    5.2014   -8.6212    0.0000 C   0  0  0  0  0  0  0  0  0  0  0  0
    5.2014   -7.7963    0.0000 C   0  0  0  0  0  0  0  0  0  0  0  0
    4.4869   -7.3838    0.0000 C   0  0  0  0  0  0  0  0  0  0  0  0
    3.0580   -9.0337    0.0000 C   0  0  0  0  0  0  0  0  0  0  0  0
    2.3435   -8.6212    0.0000 O   0  0  0  0  0  0  0  0  0  0  0  0
    3.0580   -9.8588    0.0000 O   0  0  0  0  0  0  0  0  0  0  0  0
    4.4869   -6.5587    0.0000 O   0  0  0  0  0  0  0  0  0  0  0  0
    3.7724   -6.1463    0.0000 C   0  0  0  0  0  0  0  0  0  0  0  0
    5.9158   -7.3838    0.0000 O   0  0  0  0  0  0  0  0  0  0  0  0
    6.6303   -7.7963    0.0000 C   0  0  0  0  0  0  0  0  0  0  0  0
    7.3448   -7.3838    0.0000 O   0  0  0  0  0  0  0  0  0  0  0  0
    8.0593   -7.7963    0.0000 C   0  0  0  0  0  0  0  0  0  0  0  0
    8.7737   -7.3838    0.0000 C   0  0  0  0  0  0  0  0  0  0  0  0
    9.4882   -7.7963    0.0000 C   0  0  0  0  0  0  0  0  0  0  0  0
    9.4882   -8.6212    0.0000 C   0  0  0  0  0  0  0  0  0  0  0  0
   10.2027   -9.0337    0.0000 C   0  0  0  0  0  0  0  0  0  0  0  0
   10.9171   -8.6212    0.0000 C   0  0  0  0  0  0  0  0  0  0  0  0
   10.9171   -7.7963    0.0000 C   0  0  0  0  0  0  0  0  0  0  0  0
   10.2027   -7.3837    0.0000 C   0  0  0  0  0  0  0  0  0  0  0  0
   11.6316   -7.3838    0.0000 O   0  0  0  0  0  0  0  0  0  0  0  0
  1  2  2  0  0  0  0
  2  3  1  0  0  0  0
  3  4  2  0  0  0  0
  4  5  1  0  0  0  0
  5  6  2  0  0  0  0
  6  1  1  0  0  0  0
  2  7  1  0  0  0  0
  7  8  2  0  0  0  0
  7  9  1  0  0  0  0
  6 10  1  0  0  0  0
 10 11  1  0  0  0  0
  5 12  1  0  0  0  0
 12 13  1  0  0  0  0
 13 14  1  0  0  0  0
 14 15  1  0  0  0  0
 15 16  1  0  0  0  0
 16 17  1  0  0  0  0
 17 18  2  0  0  0  0
 18 19  1  0  0  0  0
 19 20  2  0  0  0  0
 20 21  1  0  0  0  0
 21 22  2  0  0  0  0
 22 17  1  0  0  0  0
 21 23  1  0  0  0  0
M  END
>  <cdx:fragmentId>
5

$$$$
