99372.cdx
  Mrv1902 05222410182D          

 25 26  0  0  0  0            999 V2000
    6.5499   -6.8613    0.0000 C   0  0  0  0  0  0  0  0  0  0  0  0
    6.5499   -7.6863    0.0000 C   0  0  0  0  0  0  0  0  0  0  0  0
    7.2644   -8.0987    0.0000 C   0  0  0  0  0  0  0  0  0  0  0  0
    7.9789   -7.6863    0.0000 C   0  0  0  0  0  0  0  0  0  0  0  0
    7.9789   -6.8613    0.0000 C   0  0  0  0  0  0  0  0  0  0  0  0
    7.2644   -6.4487    0.0000 C   0  0  0  0  0  0  0  0  0  0  0  0
    7.2644   -5.6238    0.0000 C   0  0  0  0  0  0  0  0  0  0  0  0
    6.5499   -5.2113    0.0000 O   0  0  0  0  0  0  0  0  0  0  0  0
    7.9789   -5.2113    0.0000 O   0  0  0  0  0  0  0  0  0  0  0  0
    5.8355   -8.0987    0.0000 O   0  0  0  0  0  0  0  0  0  0  0  0
    5.1210   -7.6863    0.0000 C   0  0  0  0  0  0  0  0  0  0  0  0
    8.6933   -8.0987    0.0000 O   0  0  0  0  0  0  0  0  0  0  0  0
    9.4078   -7.6863    0.0000 C   0  0  0  0  0  0  0  0  0  0  0  0
    7.2644   -8.9238    0.0000 O   0  0  0  0  0  0  0  0  0  0  0  0
    5.1059   -9.3310    0.0000 C   0  0  2  0  0  0  0  0  0  0  0  0
    5.1059  -10.1560    0.0000 C   0  0  2  0  0  0  0  0  0  0  0  0
    5.8204  -10.5685    0.0000 C   0  0  1  0  0  0  0  0  0  0  0  0
    6.5349  -10.1560    0.0000 C   0  0  2  0  0  0  0  0  0  0  0  0
    6.5349   -9.3310    0.0000 C   0  0  1  0  0  0  0  0  0  0  0  0
    5.8204   -8.9185    0.0000 O   0  0  0  0  0  0  0  0  0  0  0  0
    4.3914   -8.9185    0.0000 C   0  0  0  0  0  0  0  0  0  0  0  0
    5.8204  -11.3935    0.0000 O   0  0  0  0  0  0  0  0  0  0  0  0
    4.3914  -10.5685    0.0000 O   0  0  0  0  0  0  0  0  0  0  0  0
    7.2493  -10.5685    0.0000 O   0  0  0  0  0  0  0  0  0  0  0  0
    3.6770   -9.3310    0.0000 O   0  0  0  0  0  0  0  0  0  0  0  0
  1  2  2  0  0  0  0
  2  3  1  0  0  0  0
  3  4  2  0  0  0  0
  4  5  1  0  0  0  0
  5  6  2  0  0  0  0
  6  1  1  0  0  0  0
  6  7  1  0  0  0  0
  7  8  2  0  0  0  0
  7  9  1  0  0  0  0
  2 10  1  0  0  0  0
 10 11  1  0  0  0  0
  4 12  1  0  0  0  0
 12 13  1  0  0  0  0
  3 14  1  0  0  0  0
 15 16  1  0  0  0  0
 16 17  1  0  0  0  0
 17 18  1  0  0  0  0
 18 19  1  0  0  0  0
 19 20  1  0  0  0  0
 20 15  1  0  0  0  0
 15 21  1  1  0  0  0
 17 22  1  1  0  0  0
 16 23  1  6  0  0  0
 18 24  1  6  0  0  0
 21 25  1  0  0  0  0
 19 14  1  1  0  0  0
M  END
>  <cdx:fragmentId>
5

$$$$
