99374.cdx
  Mrv1902 05222410192D          

 19 18  0  0  0  0            999 V2000
    1.5444   -8.3050    0.0000 C   0  0  0  0  0  0  0  0  0  0  0  0
    2.2589   -7.8925    0.0000 C   0  0  0  0  0  0  0  0  0  0  0  0
    2.9733   -8.3050    0.0000 C   0  0  0  0  0  0  0  0  0  0  0  0
    3.6878   -7.8925    0.0000 C   0  0  0  0  0  0  0  0  0  0  0  0
    4.4023   -8.3050    0.0000 C   0  0  0  0  0  0  0  0  0  0  0  0
    5.1168   -7.8925    0.0000 C   0  0  0  0  0  0  0  0  0  0  0  0
    5.8312   -8.3050    0.0000 C   0  0  0  0  0  0  0  0  0  0  0  0
    6.5457   -7.8925    0.0000 C   0  0  0  0  0  0  0  0  0  0  0  0
    7.2602   -8.3050    0.0000 C   0  0  0  0  0  0  0  0  0  0  0  0
    7.9746   -7.8925    0.0000 C   0  0  0  0  0  0  0  0  0  0  0  0
    8.6891   -7.4800    0.0000 C   0  0  0  0  0  0  0  0  0  0  0  0
    9.4036   -7.0675    0.0000 C   0  0  0  0  0  0  0  0  0  0  0  0
   10.1181   -6.6550    0.0000 C   0  0  0  0  0  0  0  0  0  0  0  0
   10.8325   -6.2425    0.0000 C   0  0  0  0  0  0  0  0  0  0  0  0
   11.5470   -6.6550    0.0000 C   0  0  0  0  0  0  0  0  0  0  0  0
   12.2615   -6.2425    0.0000 C   0  0  0  0  0  0  0  0  0  0  0  0
    5.8312   -9.1300    0.0000 O   0  0  0  0  0  0  0  0  0  0  0  0
    6.5457   -7.0675    0.0000 O   0  0  0  0  0  0  0  0  0  0  0  0
    7.2602   -9.1300    0.0000 O   0  0  0  0  0  0  0  0  0  0  0  0
  1  2  2  0  0  0  0
  2  3  1  0  0  0  0
  3  4  1  0  0  0  0
  4  5  1  0  0  0  0
  5  6  1  0  0  0  0
  6  7  1  0  0  0  0
  7  8  1  0  0  0  0
  8  9  1  0  0  0  0
  9 10  1  0  0  0  0
 10 11  3  0  0  0  0
 11 12  1  0  0  0  0
 12 13  3  0  0  0  0
 13 14  1  0  0  0  0
 14 15  1  0  0  0  0
 15 16  1  0  0  0  0
  7 17  1  0  0  0  0
  8 18  1  0  0  0  0
  9 19  2  0  0  0  0
M  END
>  <cdx:fragmentId>
3

$$$$
