99384.cdx
  Mrv1902 05222410262D          

 25 28  0  0  0  0            999 V2000
    4.9137   -7.8237    0.0000 C   0  0  0  0  0  0  0  0  0  0  0  0
    4.9137   -8.6487    0.0000 C   0  0  0  0  0  0  0  0  0  0  0  0
    5.6281   -9.0613    0.0000 C   0  0  0  0  0  0  0  0  0  0  0  0
    6.3426   -8.6487    0.0000 C   0  0  0  0  0  0  0  0  0  0  0  0
    6.3426   -7.8237    0.0000 C   0  0  0  0  0  0  0  0  0  0  0  0
    5.6281   -7.4112    0.0000 C   0  0  0  0  0  0  0  0  0  0  0  0
    7.0571   -9.0613    0.0000 C   0  0  0  0  0  0  0  0  0  0  0  0
    7.7716   -8.6487    0.0000 C   0  0  0  0  0  0  0  0  0  0  0  0
    7.7716   -7.8237    0.0000 C   0  0  0  0  0  0  0  0  0  0  0  0
    7.0571   -7.4112    0.0000 O   0  0  0  0  0  0  0  0  0  0  0  0
    8.4860   -9.0613    0.0000 O   0  0  0  0  0  0  0  0  0  0  0  0
    9.2005   -8.6487    0.0000 C   0  0  0  0  0  0  0  0  0  0  0  0
    9.2005   -7.8237    0.0000 C   0  0  0  0  0  0  0  0  0  0  0  0
    8.4860   -7.4112    0.0000 C   0  0  0  0  0  0  0  0  0  0  0  0
    9.9150   -7.4112    0.0000 C   0  0  0  0  0  0  0  0  0  0  0  0
    9.9150   -6.5863    0.0000 C   0  0  0  0  0  0  0  0  0  0  0  0
    9.2005   -6.1737    0.0000 C   0  0  0  0  0  0  0  0  0  0  0  0
    8.4860   -6.5863    0.0000 C   0  0  0  0  0  0  0  0  0  0  0  0
    4.1992   -7.4112    0.0000 O   0  0  0  0  0  0  0  0  0  0  0  0
    3.4847   -7.8237    0.0000 C   0  0  0  0  0  0  0  0  0  0  0  0
    5.6281   -9.8863    0.0000 O   0  0  0  0  0  0  0  0  0  0  0  0
    7.0571   -9.8863    0.0000 O   0  0  0  0  0  0  0  0  0  0  0  0
   10.6294   -6.1737    0.0000 O   0  0  0  0  0  0  0  0  0  0  0  0
   10.6294   -7.8237    0.0000 O   0  0  0  0  0  0  0  0  0  0  0  0
   11.3439   -7.4112    0.0000 C   0  0  0  0  0  0  0  0  0  0  0  0
  1  2  2  0  0  0  0
  2  3  1  0  0  0  0
  3  4  2  0  0  0  0
  4  5  1  0  0  0  0
  5  6  2  0  0  0  0
  6  1  1  0  0  0  0
  4  7  1  0  0  0  0
  7  8  1  0  0  0  0
  8  9  2  0  0  0  0
  9 10  1  0  0  0  0
 10  5  1  0  0  0  0
  8 11  1  0  0  0  0
 11 12  1  0  0  0  0
 12 13  1  0  0  0  0
 13 14  2  0  0  0  0
 14  9  1  0  0  0  0
 13 15  1  0  0  0  0
 15 16  2  0  0  0  0
 16 17  1  0  0  0  0
 17 18  2  0  0  0  0
 18 14  1  0  0  0  0
  1 19  1  0  0  0  0
 19 20  1  0  0  0  0
  3 21  1  0  0  0  0
  7 22  2  0  0  0  0
 16 23  1  0  0  0  0
 15 24  1  0  0  0  0
 24 25  1  0  0  0  0
M  END
>  <cdx:fragmentId>
5

$$$$
