99382.cdx
  Mrv1902 05222410272D          

 17 18  0  0  0  0            999 V2000
    6.4949   -8.1263    0.0000 C   0  0  2  0  0  0  0  0  0  0  0  0
    6.4949   -8.9513    0.0000 N   0  0  0  0  0  0  0  0  0  0  0  0
    7.2094   -9.3637    0.0000 C   0  0  0  0  0  0  0  0  0  0  0  0
    7.9239   -8.9513    0.0000 C   0  0  1  0  0  0  0  0  0  0  0  0
    7.9239   -8.1263    0.0000 N   0  0  0  0  0  0  0  0  0  0  0  0
    7.2094   -7.7138    0.0000 C   0  0  0  0  0  0  0  0  0  0  0  0
    8.7085   -9.2062    0.0000 C   0  0  0  0  0  0  0  0  0  0  0  0
    9.1934   -8.5388    0.0000 C   0  0  0  0  0  0  0  0  0  0  0  0
    8.7085   -7.8713    0.0000 C   0  0  0  0  0  0  0  0  0  0  0  0
    7.2094   -6.8888    0.0000 O   0  0  0  0  0  0  0  0  0  0  0  0
    7.2094  -10.1888    0.0000 O   0  0  0  0  0  0  0  0  0  0  0  0
    5.7805   -7.7138    0.0000 C   0  0  2  0  0  0  0  0  0  0  0  0
    5.0660   -8.1263    0.0000 C   0  0  0  0  0  0  0  0  0  0  0  0
    4.3515   -7.7138    0.0000 C   0  0  0  0  0  0  0  0  0  0  0  0
    5.7805   -6.8888    0.0000 C   0  0  0  0  0  0  0  0  0  0  0  0
    6.4949   -7.3012    0.0000 H   0  0  0  0  0  0  0  0  0  0  0  0
    8.0101   -9.7717    0.0000 H   0  0  0  0  0  0  0  0  0  0  0  0
  1  2  1  0  0  0  0
  2  3  1  0  0  0  0
  3  4  1  0  0  0  0
  4  5  1  0  0  0  0
  5  6  1  0  0  0  0
  6  1  1  0  0  0  0
  4  7  1  0  0  0  0
  7  8  1  0  0  0  0
  8  9  1  0  0  0  0
  9  5  1  0  0  0  0
  6 10  2  0  0  0  0
  3 11  2  0  0  0  0
  1 12  1  0  0  0  0
 12 13  1  0  0  0  0
 13 14  1  0  0  0  0
 12 15  1  6  0  0  0
  1 16  1  6  0  0  0
  4 17  1  6  0  0  0
M  END
>  <cdx:fragmentId>
5

$$$$
