99385.cdx
  Mrv1902 05222410262D          

 33 37  0  0  0  0            999 V2000
    5.5462   -9.2400    0.0000 C   0  0  0  0  0  0  0  0  0  0  0  0
    5.5462  -10.0650    0.0000 C   0  0  1  0  0  0  0  0  0  0  0  0
    6.2606  -10.4775    0.0000 C   0  0  0  0  0  0  0  0  0  0  0  0
    6.9751  -10.0650    0.0000 C   0  0  1  0  0  0  0  0  0  0  0  0
    6.9751   -9.2400    0.0000 C   0  0  2  0  0  0  0  0  0  0  0  0
    6.2606   -8.8275    0.0000 C   0  0  0  0  0  0  0  0  0  0  0  0
    7.6896  -10.4775    0.0000 C   0  0  0  0  0  0  0  0  0  0  0  0
    8.4041  -10.0650    0.0000 C   0  0  0  0  0  0  0  0  0  0  0  0
    8.4041   -9.2400    0.0000 C   0  0  2  0  0  0  0  0  0  0  0  0
    7.6896   -8.8275    0.0000 C   0  0  0  0  0  0  0  0  0  0  0  0
    9.1185   -8.8275    0.0000 C   0  0  2  0  0  0  0  0  0  0  0  0
    9.1185   -8.0025    0.0000 C   0  0  2  0  0  0  0  0  0  0  0  0
    8.4041   -7.5900    0.0000 C   0  0  1  0  0  0  0  0  0  0  0  0
    7.6896   -8.0025    0.0000 C   0  0  1  0  0  0  0  0  0  0  0  0
   10.5475   -8.8275    0.0000 C   0  0  0  0  0  0  0  0  0  0  0  0
   10.5475   -8.0025    0.0000 C   0  0  0  0  0  0  0  0  0  0  0  0
    9.8330   -7.5900    0.0000 C   0  0  2  0  0  0  0  0  0  0  0  0
    4.8317  -10.4775    0.0000 O   0  0  0  0  0  0  0  0  0  0  0  0
    6.9751   -8.4150    0.0000 C   0  0  0  0  0  0  0  0  0  0  0  0
    8.4041   -6.7650    0.0000 O   0  0  0  0  0  0  0  0  0  0  0  0
    9.1185   -7.1775    0.0000 C   0  0  0  0  0  0  0  0  0  0  0  0
    9.8330   -6.7650    0.0000 C   0  0  0  0  0  0  0  0  0  0  0  0
    9.1185   -9.6525    0.0000 O   0  0  0  0  0  0  0  0  0  0  0  0
    6.9751   -7.5900    0.0000 O   0  0  0  0  0  0  0  0  0  0  0  0
    6.9751  -10.8900    0.0000 H   0  0  0  0  0  0  0  0  0  0  0  0
    9.1185   -6.3525    0.0000 C   0  0  0  0  0  0  0  0  0  0  0  0
   10.5475   -6.3525    0.0000 O   0  0  0  0  0  0  0  0  0  0  0  0
    4.5144   -6.1737    0.0000 C   0  0  0  0  0  0  0  0  0  0  0  0
    5.3394   -6.1737    0.0000 C   0  0  0  0  0  0  0  0  0  0  0  0
    4.1019   -5.4593    0.0000 C   0  0  0  0  0  0  0  0  0  0  0  0
    5.7519   -6.8882    0.0000 C   0  0  0  0  0  0  0  0  0  0  0  0
    5.7519   -5.4593    0.0000 C   0  0  0  0  0  0  0  0  0  0  0  0
    6.5769   -6.8882    0.0000 O   0  0  0  0  0  0  0  0  0  0  0  0
  1  2  1  0  0  0  0
  2  3  1  0  0  0  0
  3  4  1  0  0  0  0
  4  5  1  0  0  0  0
  5  6  1  0  0  0  0
  6  1  1  0  0  0  0
  4  7  1  0  0  0  0
  7  8  1  0  0  0  0
  8  9  1  0  0  0  0
  9 10  1  0  0  0  0
 10  5  1  0  0  0  0
  9 11  1  0  0  0  0
 11 12  1  0  0  0  0
 12 13  1  0  0  0  0
 13 14  1  0  0  0  0
 14 10  1  0  0  0  0
 15 16  1  0  0  0  0
 16 17  1  0  0  0  0
 17 12  1  0  0  0  0
 11 15  1  0  0  0  0
  2 18  1  1  0  0  0
  5 19  1  1  0  0  0
 13 20  1  1  0  0  0
 12 21  1  1  0  0  0
 17 22  1  1  0  0  0
  9 23  1  1  0  0  0
 11 23  1  1  0  0  0
 14 24  1  6  0  0  0
  4 25  1  6  0  0  0
 22 26  1  0  0  0  0
 22 27  2  0  0  0  0
 28 29  2  0  0  0  0
 28 30  1  0  0  0  0
 29 31  1  0  0  0  0
 29 32  1  0  0  0  0
 31 33  1  0  0  0  0
 33 24  1  0  0  0  0
M  END
>  <cdx:fragmentId>
5

$$$$
