99389.cdx
  Mrv1902 05222410202D          

 32 36  0  0  0  0            999 V2000
    3.9924   -8.7175    0.0000 C   0  0  0  0  0  0  0  0  0  0  0  0
    3.9924   -9.5425    0.0000 C   0  0  1  0  0  0  0  0  0  0  0  0
    4.7069   -9.9550    0.0000 C   0  0  1  0  0  0  0  0  0  0  0  0
    5.4214   -9.5425    0.0000 C   0  0  0  0  0  0  0  0  0  0  0  0
    5.4214   -8.7175    0.0000 C   0  0  2  0  0  0  0  0  0  0  0  0
    4.7069   -8.3050    0.0000 C   0  0  0  0  0  0  0  0  0  0  0  0
    6.1358   -9.9550    0.0000 C   0  0  0  0  0  0  0  0  0  0  0  0
    6.8503   -9.5425    0.0000 C   0  0  0  0  0  0  0  0  0  0  0  0
    6.8503   -8.7175    0.0000 C   0  0  2  0  0  0  0  0  0  0  0  0
    6.1358   -8.3050    0.0000 C   0  0  0  0  0  0  0  0  0  0  0  0
    7.5648   -8.3050    0.0000 C   0  0  1  0  0  0  0  0  0  0  0  0
    7.5648   -7.4800    0.0000 C   0  0  0  0  0  0  0  0  0  0  0  0
    6.8503   -7.0675    0.0000 C   0  0  0  0  0  0  0  0  0  0  0  0
    6.1358   -7.4800    0.0000 C   0  0  0  0  0  0  0  0  0  0  0  0
    8.2793   -8.7175    0.0000 C   0  0  0  0  0  0  0  0  0  0  0  0
    8.9937   -8.3050    0.0000 C   0  0  0  0  0  0  0  0  0  0  0  0
    8.9937   -7.4800    0.0000 C   0  0  2  0  0  0  0  0  0  0  0  0
    8.2793   -7.0675    0.0000 C   0  0  0  0  0  0  0  0  0  0  0  0
    9.7082   -7.0675    0.0000 C   0  0  0  0  0  0  0  0  0  0  0  0
    9.7082   -6.2425    0.0000 C   0  0  0  0  0  0  0  0  0  0  0  0
    8.9937   -5.8300    0.0000 C   0  0  1  0  0  0  0  0  0  0  0  0
    8.2793   -6.2425    0.0000 C   0  0  0  0  0  0  0  0  0  0  0  0
    3.2780   -9.9550    0.0000 O   0  0  0  0  0  0  0  0  0  0  0  0
    4.2944  -10.6695    0.0000 C   0  0  0  0  0  0  0  0  0  0  0  0
    5.4214   -7.8925    0.0000 C   0  0  0  0  0  0  0  0  0  0  0  0
    6.8503   -7.8925    0.0000 C   0  0  0  0  0  0  0  0  0  0  0  0
    8.5812   -5.1155    0.0000 C   0  0  0  0  0  0  0  0  0  0  0  0
    9.7082   -7.8925    0.0000 C   0  0  0  0  0  0  0  0  0  0  0  0
    5.1194  -10.6695    0.0000 C   0  0  0  0  0  0  0  0  0  0  0  0
    7.5648   -9.1300    0.0000 C   0  0  0  0  0  0  0  0  0  0  0  0
    9.4062   -5.1155    0.0000 C   0  0  0  0  0  0  0  0  0  0  0  0
   10.2312   -4.8136    0.0000 O   0  0  0  0  0  0  0  0  0  0  0  0
  1  2  1  0  0  0  0
  2  3  1  0  0  0  0
  3  4  1  0  0  0  0
  4  5  1  0  0  0  0
  5  6  1  0  0  0  0
  6  1  1  0  0  0  0
  4  7  1  0  0  0  0
  7  8  1  0  0  0  0
  8  9  1  0  0  0  0
  9 10  1  0  0  0  0
 10  5  1  0  0  0  0
  9 11  1  0  0  0  0
 11 12  1  0  0  0  0
 12 13  2  0  0  0  0
 13 14  1  0  0  0  0
 14 10  1  0  0  0  0
 11 15  1  0  0  0  0
 15 16  1  0  0  0  0
 16 17  1  0  0  0  0
 17 18  1  0  0  0  0
 18 12  1  0  0  0  0
 17 19  1  0  0  0  0
 19 20  1  0  0  0  0
 20 21  1  0  0  0  0
 21 22  1  0  0  0  0
 22 18  1  0  0  0  0
  2 23  1  1  0  0  0
  3 24  1  1  0  0  0
  5 25  1  1  0  0  0
  9 26  1  1  0  0  0
 21 27  1  1  0  0  0
 17 28  1  1  0  0  0
  3 29  1  6  0  0  0
 11 30  1  6  0  0  0
 21 31  1  6  0  0  0
 31 32  2  0  0  0  0
M  END
>  <cdx:fragmentId>
5

$$$$
