99381.cdx
  Mrv1902 05222410282D          

 47 48  0  0  0  0            999 V2000
   14.7664   -8.7947    0.0000 C   0  0  0  0  0  0  0  0  0  0  0  0
   14.0519   -8.3822    0.0000 C   0  0  0  0  0  0  0  0  0  0  0  0
   13.3374   -8.7947    0.0000 C   0  0  0  0  0  0  0  0  0  0  0  0
   12.6229   -8.3822    0.0000 C   0  0  0  0  0  0  0  0  0  0  0  0
   11.9085   -8.7947    0.0000 C   0  0  0  0  0  0  0  0  0  0  0  0
   11.1940   -8.3822    0.0000 C   0  0  0  0  0  0  0  0  0  0  0  0
   10.4795   -8.7947    0.0000 C   0  0  0  0  0  0  0  0  0  0  0  0
    9.7651   -8.3822    0.0000 C   0  0  0  0  0  0  0  0  0  0  0  0
    9.0506   -8.7947    0.0000 C   0  0  0  0  0  0  0  0  0  0  0  0
    8.3361   -8.3822    0.0000 C   0  0  0  0  0  0  0  0  0  0  0  0
    7.6216   -8.7947    0.0000 C   0  0  0  0  0  0  0  0  0  0  0  0
    6.9072   -8.3822    0.0000 C   0  0  0  0  0  0  0  0  0  0  0  0
    6.1927   -8.7947    0.0000 C   0  0  0  0  0  0  0  0  0  0  0  0
    5.4782   -8.3822    0.0000 C   0  0  0  0  0  0  0  0  0  0  0  0
    5.4782   -7.5572    0.0000 C   0  0  0  0  0  0  0  0  0  0  0  0
    6.1927   -7.1447    0.0000 C   0  0  0  0  0  0  0  0  0  0  0  0
   14.7664   -9.6197    0.0000 O   0  0  0  0  0  0  0  0  0  0  0  0
   15.4808   -8.3822    0.0000 O   0  0  0  0  0  0  0  0  0  0  0  0
    5.4782   -9.2072    0.0000 C   0  0  0  0  0  0  0  0  0  0  0  0
    8.3361   -7.5572    0.0000 C   0  0  0  0  0  0  0  0  0  0  0  0
   11.1940   -7.5572    0.0000 C   0  0  0  0  0  0  0  0  0  0  0  0
   14.0519   -7.5572    0.0000 C   0  0  0  0  0  0  0  0  0  0  0  0
   12.6229   -7.5572    0.0000 O   0  0  0  0  0  0  0  0  0  0  0  0
    1.9059   -8.7893    0.0000 O   0  0  0  0  0  0  0  0  0  0  0  0
    1.9090   -7.1393    0.0000 O   0  0  0  0  0  0  0  0  0  0  0  0
    2.6258   -5.9032    0.0000 O   0  0  0  0  0  0  0  0  0  0  0  0
    3.3395   -6.3170    0.0000 C   0  0  0  0  0  0  0  0  0  0  0  0
    3.3301  -11.2670    0.0000 O   0  0  0  0  0  0  0  0  0  0  0  0
    1.8996  -12.0893    0.0000 O   0  0  0  0  0  0  0  0  0  0  0  0
    0.4722  -11.2616    0.0000 O   0  0  0  0  0  0  0  0  0  0  0  0
    0.4769   -8.7866    0.0000 O   0  0  0  0  0  0  0  0  0  0  0  0
    0.4754   -9.6116    0.0000 C   0  0  0  0  0  0  0  0  0  0  0  0
    1.1891  -10.0254    0.0000 C   0  0  2  0  0  0  0  0  0  0  0  0
    1.1875  -10.8504    0.0000 C   0  0  2  0  0  0  0  0  0  0  0  0
    1.9012  -11.2643    0.0000 C   0  0  1  0  0  0  0  0  0  0  0  0
    2.6164  -10.8531    0.0000 C   0  0  2  0  0  0  0  0  0  0  0  0
    2.6180  -10.0282    0.0000 C   0  0  1  0  0  0  0  0  0  0  0  0
    1.9043   -9.6143    0.0000 O   0  0  0  0  0  0  0  0  0  0  0  0
    3.3333   -9.6170    0.0000 O   0  0  0  0  0  0  0  0  0  0  0  0
    3.3380   -7.1420    0.0000 C   0  0  2  0  0  0  0  0  0  0  0  0
    2.6227   -7.5532    0.0000 C   0  0  2  0  0  0  0  0  0  0  0  0
    2.6211   -8.3782    0.0000 C   0  0  1  0  0  0  0  0  0  0  0  0
    3.3348   -8.7920    0.0000 C   0  0  2  0  0  0  0  0  0  0  0  0
    4.0501   -8.3809    0.0000 C   0  0  1  0  0  0  0  0  0  0  0  0
    4.0516   -7.5559    0.0000 O   0  0  0  0  0  0  0  0  0  0  0  0
    4.7638   -8.7947    0.0000 O   0  0  0  0  0  0  0  0  0  0  0  0
   16.1953   -8.7947    0.0000 C   0  0  0  0  0  0  0  0  0  0  0  0
 44 46  1  1  0  0  0
 42 24  1  1  0  0  0
 41 25  1  6  0  0  0
 40 27  1  1  0  0  0
 27 26  1  0  0  0  0
 43 39  1  6  0  0  0
 37 39  1  1  0  0  0
 36 28  1  6  0  0  0
 35 29  1  1  0  0  0
 34 30  1  6  0  0  0
 33 32  1  1  0  0  0
 32 31  1  0  0  0  0
 38 33  1  0  0  0  0
 34 33  1  0  0  0  0
 35 34  1  0  0  0  0
 36 35  1  0  0  0  0
 37 36  1  0  0  0  0
 38 37  1  0  0  0  0
 45 40  1  0  0  0  0
 41 40  1  0  0  0  0
 42 41  1  0  0  0  0
 43 42  1  0  0  0  0
 44 43  1  0  0  0  0
  1  2  1  0  0  0  0
  2  3  2  0  0  0  0
  3  4  1  0  0  0  0
  4  5  1  0  0  0  0
  5  6  1  0  0  0  0
  6  7  2  0  0  0  0
  7  8  1  0  0  0  0
  8  9  1  0  0  0  0
  9 10  1  0  0  0  0
 10 11  2  0  0  0  0
 11 12  1  0  0  0  0
 12 13  1  0  0  0  0
 13 14  1  0  0  0  0
 14 15  1  0  0  0  0
 15 16  2  0  0  0  0
  1 17  2  0  0  0  0
  1 18  1  0  0  0  0
 14 19  1  0  0  0  0
 10 20  1  0  0  0  0
  6 21  1  0  0  0  0
  2 22  1  0  0  0  0
  4 23  1  0  0  0  0
 45 44  1  0  0  0  0
 14 46  1  0  0  0  0
 18 47  1  0  0  0  0
M  END
>  <cdx:fragmentId>
67

$$$$
