99388.cdx
  Mrv1902 05222410202D          

 37 40  0  0  0  0            999 V2000
   11.9057   -8.8292    0.0000 C   0  0  0  0  0  0  0  0  0  0  0  0
   11.1920   -8.4154    0.0000 C   0  0  0  0  0  0  0  0  0  0  0  0
   10.4768   -8.8265    0.0000 C   0  0  0  0  0  0  0  0  0  0  0  0
   12.6210   -8.4181    0.0000 O   0  0  0  0  0  0  0  0  0  0  0  0
    7.5516   -7.3286    0.0000 O   0  0  0  0  0  0  0  0  0  0  0  0
    7.0654   -7.9951    0.0000 C   0  0  2  0  0  0  0  0  0  0  0  0
    7.5491   -8.6635    0.0000 C   0  0  1  0  0  0  0  0  0  0  0  0
    8.3342   -8.4100    0.0000 C   0  0  0  0  0  0  0  0  0  0  0  0
    9.0478   -8.8238    0.0000 C   0  0  0  0  0  0  0  0  0  0  0  0
    9.7631   -8.4127    0.0000 C   0  0  0  0  0  0  0  0  0  0  0  0
    9.7646   -7.5877    0.0000 C   0  0  0  0  0  0  0  0  0  0  0  0
    9.0509   -7.1738    0.0000 C   0  0  0  0  0  0  0  0  0  0  0  0
    8.3357   -7.5850    0.0000 C   0  0  0  0  0  0  0  0  0  0  0  0
    7.2926   -9.4476    0.0000 C   0  0  0  0  0  0  0  0  0  0  0  0
    7.8328  -10.0301    0.0000 O   0  0  0  0  0  0  0  0  0  0  0  0
    6.5929  -10.7404    0.0000 O   0  0  0  0  0  0  0  0  0  0  0  0
    7.4179  -10.7432    0.0000 C   0  0  2  0  0  0  0  0  0  0  0  0
    7.8280  -11.4590    0.0000 C   0  0  1  0  0  0  0  0  0  0  0  0
    7.4131  -12.1721    0.0000 C   0  0  2  0  0  0  0  0  0  0  0  0
    6.5881  -12.1693    0.0000 C   0  0  1  0  0  0  0  0  0  0  0  0
    6.1780  -11.4535    0.0000 C   0  0  1  0  0  0  0  0  0  0  0  0
    5.3530  -11.4507    0.0000 C   0  0  0  0  0  0  0  0  0  0  0  0
    4.9429  -10.7348    0.0000 O   0  0  0  0  0  0  0  0  0  0  0  0
    6.1732  -12.8824    0.0000 O   0  0  0  0  0  0  0  0  0  0  0  0
    7.8232  -12.8880    0.0000 O   0  0  0  0  0  0  0  0  0  0  0  0
    8.6530  -11.4618    0.0000 O   0  0  0  0  0  0  0  0  0  0  0  0
    9.0525   -6.3488    0.0000 O   0  0  0  0  0  0  0  0  0  0  0  0
    9.7677   -5.9377    0.0000 C   0  0  0  0  0  0  0  0  0  0  0  0
    6.2404   -7.9936    0.0000 C   0  0  0  0  0  0  0  0  0  0  0  0
    5.8265   -8.7073    0.0000 C   0  0  0  0  0  0  0  0  0  0  0  0
    5.0015   -8.7057    0.0000 C   0  0  0  0  0  0  0  0  0  0  0  0
    4.5904   -7.9905    0.0000 C   0  0  0  0  0  0  0  0  0  0  0  0
    5.0042   -7.2768    0.0000 C   0  0  0  0  0  0  0  0  0  0  0  0
    5.8292   -7.2783    0.0000 C   0  0  0  0  0  0  0  0  0  0  0  0
    4.5877   -9.4194    0.0000 O   0  0  0  0  0  0  0  0  0  0  0  0
    3.7627   -9.4178    0.0000 C   0  0  0  0  0  0  0  0  0  0  0  0
    3.7654   -7.9889    0.0000 O   0  0  0  0  0  0  0  0  0  0  0  0
  1  2  1  0  0  0  0
  2  3  1  0  0  0  0
  1  4  1  0  0  0  0
  5  6  1  0  0  0  0
  6  7  1  0  0  0  0
  7  8  1  0  0  0  0
  8  9  1  0  0  0  0
  9 10  2  0  0  0  0
 10 11  1  0  0  0  0
 11 12  2  0  0  0  0
 12 13  1  0  0  0  0
  8 13  2  0  0  0  0
  5 13  1  0  0  0  0
 16 17  1  0  0  0  0
 17 18  1  0  0  0  0
 18 19  1  0  0  0  0
 19 20  1  0  0  0  0
 20 21  1  0  0  0  0
 16 21  1  0  0  0  0
 22 23  1  0  0  0  0
 21 22  1  1  0  0  0
 20 24  1  6  0  0  0
 19 25  1  1  0  0  0
 18 26  1  6  0  0  0
 17 15  1  1  0  0  0
 14 15  1  0  0  0  0
  7 14  1  1  0  0  0
 27 28  1  0  0  0  0
 12 27  1  0  0  0  0
 29 30  1  0  0  0  0
 30 31  2  0  0  0  0
 31 32  1  0  0  0  0
 32 33  2  0  0  0  0
 33 34  1  0  0  0  0
 29 34  2  0  0  0  0
 35 36  1  0  0  0  0
 31 35  1  0  0  0  0
 32 37  1  0  0  0  0
  6 29  1  6  0  0  0
  3 10  1  0  0  0  0
M  END
>  <cdx:fragmentId>
35

$$$$
