99405.cdx
  Mrv1902 05222410202D          

 51 58  0  0  0  0            999 V2000
    9.9509   -7.4519    0.0000 C   0  0  2  0  0  0  0  0  0  0  0  0
    9.4660   -8.1193    0.0000 C   0  0  1  0  0  0  0  0  0  0  0  0
    8.6814   -7.8644    0.0000 C   0  0  1  0  0  0  0  0  0  0  0  0
    7.9669   -8.2769    0.0000 C   0  0  0  0  0  0  0  0  0  0  0  0
    7.9669   -9.1019    0.0000 C   0  0  0  0  0  0  0  0  0  0  0  0
    7.2524   -9.5144    0.0000 C   0  0  0  0  0  0  0  0  0  0  0  0
    6.5380   -9.1019    0.0000 C   0  0  1  0  0  0  0  0  0  0  0  0
    5.8235   -9.5144    0.0000 C   0  0  1  0  0  0  0  0  0  0  0  0
    5.1090   -9.1019    0.0000 C   0  0  2  0  0  0  0  0  0  0  0  0
    5.1090   -8.2769    0.0000 C   0  0  0  0  0  0  0  0  0  0  0  0
    5.8235   -7.8644    0.0000 C   0  0  0  0  0  0  0  0  0  0  0  0
    6.5380   -8.2769    0.0000 C   0  0  1  0  0  0  0  0  0  0  0  0
    6.5380   -7.4519    0.0000 C   0  0  0  0  0  0  0  0  0  0  0  0
    7.2524   -7.8644    0.0000 C   0  0  1  0  0  0  0  0  0  0  0  0
    7.2524   -7.0394    0.0000 C   0  0  0  0  0  0  0  0  0  0  0  0
    7.9669   -6.6269    0.0000 C   0  0  0  0  0  0  0  0  0  0  0  0
    8.6814   -7.0394    0.0000 C   0  0  2  0  0  0  0  0  0  0  0  0
    9.4660   -6.7845    0.0000 C   0  0  1  0  0  0  0  0  0  0  0  0
    9.6855   -5.9892    0.0000 C   0  0  1  0  0  0  0  0  0  0  0  0
   10.4441   -5.6649    0.0000 C   0  0  0  0  0  0  0  0  0  0  0  0
   11.1706   -6.0559    0.0000 C   0  0  2  0  0  0  0  0  0  0  0  0
   11.3179   -6.8676    0.0000 C   0  0  2  0  0  0  0  0  0  0  0  0
   10.7751   -7.4889    0.0000 O   0  0  0  0  0  0  0  0  0  0  0  0
   10.1588   -6.4014    0.0000 O   0  0  0  0  0  0  0  0  0  0  0  0
    9.7209   -8.9040    0.0000 O   0  0  0  0  0  0  0  0  0  0  0  0
    4.3946   -9.5144    0.0000 O   0  0  0  0  0  0  0  0  0  0  0  0
    9.0642   -5.4464    0.0000 C   0  0  0  0  0  0  0  0  0  0  0  0
    8.6814   -6.2144    0.0000 C   0  0  0  0  0  0  0  0  0  0  0  0
    6.2360  -10.2289    0.0000 C   0  0  0  0  0  0  0  0  0  0  0  0
    5.4110  -10.2289    0.0000 C   0  0  0  0  0  0  0  0  0  0  0  0
    8.6814   -8.6894    0.0000 C   0  0  0  0  0  0  0  0  0  0  0  0
   12.1132   -7.9121    0.0000 C   0  0  0  0  0  0  0  0  0  0  0  0
   12.1132   -7.0871    0.0000 C   0  0  0  0  0  0  0  0  0  0  0  0
   12.8276   -6.6746    0.0000 C   0  0  0  0  0  0  0  0  0  0  0  0
   12.9084   -7.3066    0.0000 O   0  0  0  0  0  0  0  0  0  0  0  0
    6.5380   -9.9269    0.0000 H   0  0  0  0  0  0  0  0  0  0  0  0
    8.9778   -6.1194    0.0000 H   0  0  0  0  0  0  0  0  0  0  0  0
   11.8380   -5.5710    0.0000 H   0  0  0  0  0  0  0  0  0  0  0  0
   12.0324   -6.4551    0.0000 O   0  0  0  0  0  0  0  0  0  0  0  0
    3.6801   -9.1019    0.0000 C   0  0  2  0  0  0  0  0  0  0  0  0
    3.6801   -8.2769    0.0000 O   0  0  0  0  0  0  0  0  0  0  0  0
    2.9656   -7.8644    0.0000 C   0  0  0  0  0  0  0  0  0  0  0  0
    2.2511   -8.2769    0.0000 C   0  0  2  0  0  0  0  0  0  0  0  0
    2.2511   -9.1019    0.0000 C   0  0  1  0  0  0  0  0  0  0  0  0
    2.9656   -9.5144    0.0000 C   0  0  1  0  0  0  0  0  0  0  0  0
    2.9656  -10.3394    0.0000 O   0  0  0  0  0  0  0  0  0  0  0  0
    1.5367   -9.5144    0.0000 O   0  0  0  0  0  0  0  0  0  0  0  0
    1.5367   -7.8644    0.0000 O   0  0  0  0  0  0  0  0  0  0  0  0
   12.4449   -5.7407    0.0000 C   0  0  0  0  0  0  0  0  0  0  0  0
   13.2699   -5.7407    0.0000 C   0  0  0  0  0  0  0  0  0  0  0  0
   12.0324   -5.0262    0.0000 O   0  0  0  0  0  0  0  0  0  0  0  0
  1  2  1  0  0  0  0
  2  3  1  0  0  0  0
  3  4  1  0  0  0  0
  4  5  2  0  0  0  0
  5  6  1  0  0  0  0
  6  7  1  0  0  0  0
  7  8  1  0  0  0  0
  8  9  1  0  0  0  0
  9 10  1  0  0  0  0
 10 11  1  0  0  0  0
 11 12  1  0  0  0  0
 12 13  1  1  0  0  0
 14 13  1  1  0  0  0
 14 15  1  0  0  0  0
 15 16  1  0  0  0  0
 16 17  1  0  0  0  0
 17 18  1  0  0  0  0
 18 19  1  0  0  0  0
 19 20  1  0  0  0  0
 20 21  1  0  0  0  0
 21 22  1  0  0  0  0
 22 23  1  0  0  0  0
  1 23  1  0  0  0  0
  1 24  1  1  0  0  0
 21 24  1  0  0  0  0
  1 18  1  0  0  0  0
  3 17  1  0  0  0  0
 12 14  1  0  0  0  0
  4 14  1  0  0  0  0
  7 12  1  0  0  0  0
  2 25  1  6  0  0  0
  9 26  1  1  0  0  0
 19 27  1  6  0  0  0
 17 28  1  1  0  0  0
  8 29  1  0  0  0  0
  8 30  1  1  0  0  0
  3 31  1  6  0  0  0
 32 33  1  0  0  0  0
 33 34  1  0  0  0  0
 33 35  1  0  0  0  0
 22 33  1  0  0  0  0
  7 36  1  6  0  0  0
 18 37  1  6  0  0  0
 21 38  1  1  0  0  0
 22 39  1  6  0  0  0
 40 26  1  1  0  0  0
 40 41  1  0  0  0  0
 41 42  1  0  0  0  0
 42 43  1  0  0  0  0
 43 44  1  0  0  0  0
 44 45  1  0  0  0  0
 45 40  1  0  0  0  0
 45 46  1  6  0  0  0
 44 47  1  1  0  0  0
 43 48  1  6  0  0  0
 39 49  1  0  0  0  0
 49 50  1  0  0  0  0
 49 51  2  0  0  0  0
M  END
>  <cdx:fragmentId>
74183

$$$$
