99408.cdx
  Mrv1902 05222410262D          

 40 43  0  0  0  0            999 V2000
    3.5338   -7.6529    0.0000 C   0  0  2  0  0  0  0  0  0  0  0  0
    2.8184   -8.0638    0.0000 C   0  0  2  0  0  0  0  0  0  0  0  0
    2.8166   -8.8888    0.0000 C   0  0  1  0  0  0  0  0  0  0  0  0
    3.5301   -9.3029    0.0000 C   0  0  2  0  0  0  0  0  0  0  0  0
    4.2455   -8.8920    0.0000 C   0  0  1  0  0  0  0  0  0  0  0  0
    4.2474   -8.0670    0.0000 O   0  0  0  0  0  0  0  0  0  0  0  0
    3.5357   -6.8279    0.0000 C   0  0  0  0  0  0  0  0  0  0  0  0
    2.1012   -9.2997    0.0000 O   0  0  0  0  0  0  0  0  0  0  0  0
    4.9590   -9.3062    0.0000 O   0  0  0  0  0  0  0  0  0  0  0  0
    2.1049   -7.6497    0.0000 O   0  0  0  0  0  0  0  0  0  0  0  0
    3.5282  -10.1279    0.0000 O   0  0  0  0  0  0  0  0  0  0  0  0
    2.8222   -6.4138    0.0000 O   0  0  0  0  0  0  0  0  0  0  0  0
    5.6744   -8.8953    0.0000 C   0  0  0  0  0  0  0  0  0  0  0  0
    6.3880   -9.3094    0.0000 C   0  0  0  0  0  0  0  0  0  0  0  0
    7.1034   -8.8985    0.0000 C   0  0  0  0  0  0  0  0  0  0  0  0
    7.1052   -8.0735    0.0000 C   0  0  0  0  0  0  0  0  0  0  0  0
    6.3917   -7.6594    0.0000 C   0  0  0  0  0  0  0  0  0  0  0  0
    5.6763   -8.0703    0.0000 C   0  0  0  0  0  0  0  0  0  0  0  0
    4.9628   -7.6562    0.0000 O   0  0  0  0  0  0  0  0  0  0  0  0
    4.9646   -6.8312    0.0000 C   0  0  0  0  0  0  0  0  0  0  0  0
    6.3861  -10.1344    0.0000 O   0  0  0  0  0  0  0  0  0  0  0  0
    7.0996  -10.5485    0.0000 C   0  0  0  0  0  0  0  0  0  0  0  0
    7.8197   -7.6610    0.0000 C   0  0  2  0  0  0  0  0  0  0  0  0
    8.5734   -7.9966    0.0000 O   0  0  0  0  0  0  0  0  0  0  0  0
    9.1254   -7.3835    0.0000 C   0  0  0  0  0  0  0  0  0  0  0  0
    8.7129   -6.6690    0.0000 C   0  0  0  0  0  0  0  0  0  0  0  0
    7.9060   -6.8405    0.0000 C   0  0  0  0  0  0  0  0  0  0  0  0
    9.9504   -7.3835    0.0000 C   0  0  0  0  0  0  0  0  0  0  0  0
   10.3629   -6.6690    0.0000 C   0  0  0  0  0  0  0  0  0  0  0  0
    9.9504   -5.9545    0.0000 C   0  0  0  0  0  0  0  0  0  0  0  0
    9.1254   -5.9545    0.0000 C   0  0  0  0  0  0  0  0  0  0  0  0
    7.2929   -6.2885    0.0000 C   0  0  0  0  0  0  0  0  0  0  0  0
    7.5064   -5.4916    0.0000 O   0  0  0  0  0  0  0  0  0  0  0  0
   10.3629   -8.0980    0.0000 O   0  0  0  0  0  0  0  0  0  0  0  0
    9.9504   -8.8124    0.0000 C   0  0  0  0  0  0  0  0  0  0  0  0
   10.3629   -5.2401    0.0000 C   0  0  0  0  0  0  0  0  0  0  0  0
   11.1879   -5.2401    0.0000 C   0  0  0  0  0  0  0  0  0  0  0  0
   11.6004   -4.5256    0.0000 C   0  0  0  0  0  0  0  0  0  0  0  0
   12.4254   -4.5256    0.0000 O   0  0  0  0  0  0  0  0  0  0  0  0
   11.1879   -3.8111    0.0000 O   0  0  0  0  0  0  0  0  0  0  0  0
  1  2  1  0  0  0  0
  2  3  1  0  0  0  0
  3  4  1  0  0  0  0
  4  5  1  0  0  0  0
  5  6  1  0  0  0  0
  6  1  1  0  0  0  0
  1  7  1  1  0  0  0
  3  8  1  1  0  0  0
  5  9  1  1  0  0  0
  2 10  1  6  0  0  0
  4 11  1  6  0  0  0
  7 12  1  0  0  0  0
  9 13  1  0  0  0  0
 13 14  2  0  0  0  0
 14 15  1  0  0  0  0
 15 16  2  0  0  0  0
 16 17  1  0  0  0  0
 17 18  2  0  0  0  0
 18 13  1  0  0  0  0
 18 19  1  0  0  0  0
 19 20  1  0  0  0  0
 14 21  1  0  0  0  0
 21 22  1  0  0  0  0
 23 16  1  1  0  0  0
 23 24  1  0  0  0  0
 24 25  1  0  0  0  0
 25 26  2  0  0  0  0
 26 27  1  0  0  0  0
 27 23  1  0  0  0  0
 25 28  1  0  0  0  0
 28 29  2  0  0  0  0
 29 30  1  0  0  0  0
 30 31  2  0  0  0  0
 31 26  1  0  0  0  0
 27 32  1  0  0  0  0
 32 33  1  0  0  0  0
 28 34  1  0  0  0  0
 34 35  1  0  0  0  0
 30 36  1  0  0  0  0
 36 37  2  0  0  0  0
 37 38  1  0  0  0  0
 38 39  1  0  0  0  0
 38 40  2  0  0  0  0
M  END
>  <cdx:fragmentId>
354

$$$$
