99406.cdx
  Mrv1902 05222410192D          

 35 39  0  0  0  0            999 V2000
    9.1042   -7.4324    0.0000 C   0  0  1  0  0  0  0  0  0  0  0  0
    8.3897   -7.8448    0.0000 C   0  0  2  0  0  0  0  0  0  0  0  0
    9.1043   -6.6074    0.0000 C   0  0  0  0  0  0  0  0  0  0  0  0
    8.3899   -6.1948    0.0000 O   0  0  0  0  0  0  0  0  0  0  0  0
    7.6754   -6.6073    0.0000 C   0  0  0  0  0  0  0  0  0  0  0  0
    7.6753   -7.4323    0.0000 C   0  0  0  0  0  0  0  0  0  0  0  0
    6.9609   -6.1947    0.0000 C   0  0  0  0  0  0  0  0  0  0  0  0
    6.2464   -6.6071    0.0000 C   0  0  0  0  0  0  0  0  0  0  0  0
    6.2463   -7.4321    0.0000 C   0  0  0  0  0  0  0  0  0  0  0  0
    6.9607   -7.8447    0.0000 C   0  0  0  0  0  0  0  0  0  0  0  0
    5.5320   -6.1945    0.0000 O   0  0  0  0  0  0  0  0  0  0  0  0
    7.6752   -8.2573    0.0000 H   0  0  0  0  0  0  0  0  0  0  0  0
    9.9011   -7.2190    0.0000 H   0  0  0  0  0  0  0  0  0  0  0  0
    8.5611   -8.6518    0.0000 O   0  0  0  0  0  0  0  0  0  0  0  0
    9.3816   -8.7382    0.0000 C   0  0  0  0  0  0  0  0  0  0  0  0
    9.7172   -7.9845    0.0000 C   0  0  0  0  0  0  0  0  0  0  0  0
    9.8665   -9.4056    0.0000 C   0  0  0  0  0  0  0  0  0  0  0  0
   10.6869   -9.3195    0.0000 C   0  0  0  0  0  0  0  0  0  0  0  0
   11.0226   -8.5659    0.0000 C   0  0  0  0  0  0  0  0  0  0  0  0
   10.5377   -7.8984    0.0000 C   0  0  0  0  0  0  0  0  0  0  0  0
    9.5308  -10.1593    0.0000 O   0  0  0  0  0  0  0  0  0  0  0  0
   10.0157  -10.8268    0.0000 C   0  0  0  0  0  0  0  0  0  0  0  0
   11.1718   -9.9870    0.0000 O   0  0  0  0  0  0  0  0  0  0  0  0
   11.9968   -9.9870    0.0000 C   0  0  0  0  0  0  0  0  0  0  0  0
    3.3858   -6.6085    0.0000 C   0  0  2  0  0  0  0  0  0  0  0  0
    3.3858   -7.4335    0.0000 C   0  0  2  0  0  0  0  0  0  0  0  0
    4.1002   -7.8460    0.0000 C   0  0  1  0  0  0  0  0  0  0  0  0
    4.8147   -7.4335    0.0000 C   0  0  2  0  0  0  0  0  0  0  0  0
    4.8147   -6.6085    0.0000 C   0  0  1  0  0  0  0  0  0  0  0  0
    4.1002   -6.1960    0.0000 O   0  0  0  0  0  0  0  0  0  0  0  0
    4.1002   -8.6710    0.0000 O   0  0  0  0  0  0  0  0  0  0  0  0
    2.6713   -6.1960    0.0000 C   0  0  0  0  0  0  0  0  0  0  0  0
    5.5292   -7.8460    0.0000 O   0  0  0  0  0  0  0  0  0  0  0  0
    2.6713   -7.8460    0.0000 O   0  0  0  0  0  0  0  0  0  0  0  0
    1.9568   -6.6085    0.0000 O   0  0  0  0  0  0  0  0  0  0  0  0
  1  2  1  0  0  0  0
  1  3  1  0  0  0  0
  3  4  1  0  0  0  0
  4  5  1  0  0  0  0
  5  6  2  0  0  0  0
  6  2  1  0  0  0  0
  5  7  1  0  0  0  0
  7  8  2  0  0  0  0
  8  9  1  0  0  0  0
  9 10  2  0  0  0  0
 10  6  1  0  0  0  0
  8 11  1  0  0  0  0
  2 12  1  6  0  0  0
  1 13  1  6  0  0  0
  2 14  1  0  0  0  0
 14 15  1  0  0  0  0
 15 16  2  0  0  0  0
 16  1  1  0  0  0  0
 15 17  1  0  0  0  0
 17 18  2  0  0  0  0
 18 19  1  0  0  0  0
 19 20  2  0  0  0  0
 20 16  1  0  0  0  0
 17 21  1  0  0  0  0
 21 22  1  0  0  0  0
 18 23  1  0  0  0  0
 23 24  1  0  0  0  0
 25 26  1  0  0  0  0
 26 27  1  0  0  0  0
 27 28  1  0  0  0  0
 28 29  1  0  0  0  0
 29 30  1  0  0  0  0
 30 25  1  0  0  0  0
 27 31  1  1  0  0  0
 25 32  1  1  0  0  0
 28 33  1  6  0  0  0
 26 34  1  6  0  0  0
 29 11  1  1  0  0  0
 32 35  1  0  0  0  0
M  END
>  <cdx:fragmentId>
124

$$$$
