99400.cdx
  Mrv1902 05222410182D          

 34 37  0  0  0  0            999 V2000
    7.5812   -6.5863    0.0000 C   0  0  0  0  0  0  0  0  0  0  0  0
    7.5812   -7.4112    0.0000 C   0  0  0  0  0  0  0  0  0  0  0  0
    8.2956   -7.8237    0.0000 C   0  0  0  0  0  0  0  0  0  0  0  0
    9.0101   -7.4112    0.0000 C   0  0  0  0  0  0  0  0  0  0  0  0
    9.0101   -6.5863    0.0000 C   0  0  0  0  0  0  0  0  0  0  0  0
    8.2956   -6.1737    0.0000 C   0  0  0  0  0  0  0  0  0  0  0  0
    9.7246   -7.8237    0.0000 O   0  0  0  0  0  0  0  0  0  0  0  0
   10.4391   -7.4112    0.0000 C   0  0  0  0  0  0  0  0  0  0  0  0
   10.4391   -6.5863    0.0000 C   0  0  0  0  0  0  0  0  0  0  0  0
    9.7246   -6.1737    0.0000 C   0  0  0  0  0  0  0  0  0  0  0  0
    6.7966   -6.3313    0.0000 C   0  0  0  0  0  0  0  0  0  0  0  0
    6.3116   -6.9988    0.0000 C   0  0  0  0  0  0  0  0  0  0  0  0
    6.7966   -7.6662    0.0000 O   0  0  0  0  0  0  0  0  0  0  0  0
    8.2956   -5.3487    0.0000 O   0  0  0  0  0  0  0  0  0  0  0  0
    7.5812   -4.9363    0.0000 C   0  0  0  0  0  0  0  0  0  0  0  0
   11.1535   -7.8237    0.0000 O   0  0  0  0  0  0  0  0  0  0  0  0
    8.2956   -8.6487    0.0000 O   0  0  0  0  0  0  0  0  0  0  0  0
    9.0101   -9.0613    0.0000 C   0  0  0  0  0  0  0  0  0  0  0  0
    9.0101   -9.8863    0.0000 C   0  0  0  0  0  0  0  0  0  0  0  0
    8.2956  -10.2988    0.0000 C   0  0  0  0  0  0  0  0  0  0  0  0
    8.2956  -11.1237    0.0000 C   0  0  0  0  0  0  0  0  0  0  0  0
    7.5812   -9.8863    0.0000 C   0  0  0  0  0  0  0  0  0  0  0  0
    6.8667  -10.2988    0.0000 O   0  0  0  0  0  0  0  0  0  0  0  0
    5.4251   -8.6441    0.0000 C   0  0  2  0  0  0  0  0  0  0  0  0
    4.7123   -9.0593    0.0000 C   0  0  2  0  0  0  0  0  0  0  0  0
    4.7155   -9.8843    0.0000 C   0  0  1  0  0  0  0  0  0  0  0  0
    5.4315  -10.2940    0.0000 C   0  0  2  0  0  0  0  0  0  0  0  0
    6.1444   -9.8788    0.0000 C   0  0  1  0  0  0  0  0  0  0  0  0
    6.1412   -9.0538    0.0000 O   0  0  0  0  0  0  0  0  0  0  0  0
    5.4219   -7.8191    0.0000 C   0  0  0  0  0  0  0  0  0  0  0  0
    4.0026  -10.2996    0.0000 O   0  0  0  0  0  0  0  0  0  0  0  0
    3.9962   -8.6496    0.0000 O   0  0  0  0  0  0  0  0  0  0  0  0
    5.4347  -11.1190    0.0000 O   0  0  0  0  0  0  0  0  0  0  0  0
    4.7058   -7.4094    0.0000 O   0  0  0  0  0  0  0  0  0  0  0  0
  1  2  2  0  0  0  0
  2  3  1  0  0  0  0
  3  4  2  0  0  0  0
  4  5  1  0  0  0  0
  5  6  2  0  0  0  0
  6  1  1  0  0  0  0
  4  7  1  0  0  0  0
  7  8  1  0  0  0  0
  8  9  1  0  0  0  0
  9 10  2  0  0  0  0
 10  5  1  0  0  0  0
  1 11  1  0  0  0  0
 11 12  2  0  0  0  0
 12 13  1  0  0  0  0
 13  2  1  0  0  0  0
  6 14  1  0  0  0  0
 14 15  1  0  0  0  0
  8 16  2  0  0  0  0
  3 17  1  0  0  0  0
 17 18  1  0  0  0  0
 18 19  1  0  0  0  0
 19 20  2  0  0  0  0
 20 21  1  0  0  0  0
 20 22  1  0  0  0  0
 22 23  1  0  0  0  0
 24 25  1  0  0  0  0
 25 26  1  0  0  0  0
 26 27  1  0  0  0  0
 27 28  1  0  0  0  0
 28 29  1  0  0  0  0
 29 24  1  0  0  0  0
 24 30  1  1  0  0  0
 26 31  1  1  0  0  0
 25 32  1  6  0  0  0
 27 33  1  6  0  0  0
 30 34  1  0  0  0  0
 28 23  1  1  0  0  0
M  END
>  <cdx:fragmentId>
5

$$$$
