99409.cdx
  Mrv1902 05222410262D          

 23 23  0  0  0  0            999 V2000
   11.2913   -6.9714    0.0000 C   0  0  0  0  0  0  0  0  0  0  0  0
   10.5768   -7.3839    0.0000 C   0  0  0  0  0  0  0  0  0  0  0  0
    9.8624   -6.9714    0.0000 C   0  0  0  0  0  0  0  0  0  0  0  0
    9.1479   -7.3839    0.0000 C   0  0  0  0  0  0  0  0  0  0  0  0
    8.4334   -6.9714    0.0000 C   0  0  0  0  0  0  0  0  0  0  0  0
    7.7189   -7.3839    0.0000 C   0  0  0  0  0  0  0  0  0  0  0  0
    7.0045   -6.9714    0.0000 C   0  0  0  0  0  0  0  0  0  0  0  0
    6.2900   -7.3839    0.0000 C   0  0  0  0  0  0  0  0  0  0  0  0
    7.7189   -8.2089    0.0000 C   0  0  0  0  0  0  0  0  0  0  0  0
   10.5768   -8.2089    0.0000 C   0  0  0  0  0  0  0  0  0  0  0  0
   12.0058   -7.3839    0.0000 O   0  0  0  0  0  0  0  0  0  0  0  0
    5.5755   -6.9714    0.0000 O   0  0  0  0  0  0  0  0  0  0  0  0
    3.4422   -7.3785    0.0000 C   0  0  2  0  0  0  0  0  0  0  0  0
    3.4422   -8.2035    0.0000 C   0  0  2  0  0  0  0  0  0  0  0  0
    4.1566   -8.6160    0.0000 C   0  0  1  0  0  0  0  0  0  0  0  0
    4.8711   -8.2035    0.0000 C   0  0  2  0  0  0  0  0  0  0  0  0
    4.8711   -7.3785    0.0000 C   0  0  1  0  0  0  0  0  0  0  0  0
    4.1566   -6.9660    0.0000 O   0  0  0  0  0  0  0  0  0  0  0  0
    2.7277   -6.9660    0.0000 C   0  0  0  0  0  0  0  0  0  0  0  0
    4.1566   -9.4410    0.0000 O   0  0  0  0  0  0  0  0  0  0  0  0
    2.7277   -8.6160    0.0000 O   0  0  0  0  0  0  0  0  0  0  0  0
    5.5856   -8.6160    0.0000 O   0  0  0  0  0  0  0  0  0  0  0  0
    2.0132   -7.3785    0.0000 O   0  0  0  0  0  0  0  0  0  0  0  0
  1  2  1  0  0  0  0
  2  3  2  0  0  0  0
  3  4  1  0  0  0  0
  4  5  1  0  0  0  0
  5  6  1  0  0  0  0
  6  7  2  0  0  0  0
  7  8  1  0  0  0  0
  6  9  1  0  0  0  0
  2 10  1  0  0  0  0
  1 11  1  0  0  0  0
  8 12  1  0  0  0  0
 13 14  1  0  0  0  0
 14 15  1  0  0  0  0
 15 16  1  0  0  0  0
 16 17  1  0  0  0  0
 17 18  1  0  0  0  0
 18 13  1  0  0  0  0
 13 19  1  1  0  0  0
 15 20  1  1  0  0  0
 14 21  1  6  0  0  0
 16 22  1  6  0  0  0
 19 23  1  0  0  0  0
 17 12  1  1  0  0  0
M  END
>  <cdx:fragmentId>
5

$$$$
