99401.cdx
  Mrv1902 05222410182D          

 32 32  0  0  0  0            999 V2000
    3.2688   -9.3147    0.0000 C   0  0  0  0  0  0  0  0  0  0  0  0
    3.2688  -10.1394    0.0000 C   0  0  0  0  0  0  0  0  0  0  0  0
    3.9831  -10.5518    0.0000 C   0  0  0  0  0  0  0  0  0  0  0  0
    4.6973  -10.1394    0.0000 C   0  0  0  0  0  0  0  0  0  0  0  0
    4.6973   -9.3147    0.0000 C   0  0  0  0  0  0  0  0  0  0  0  0
    3.9831   -8.9023    0.0000 C   0  0  0  0  0  0  0  0  0  0  0  0
    2.5546  -10.5518    0.0000 O   0  0  0  0  0  0  0  0  0  0  0  0
    3.9831  -11.3765    0.0000 O   0  0  0  0  0  0  0  0  0  0  0  0
    5.3936   -8.9283    0.0000 C   0  0  0  0  0  0  0  0  0  0  0  0
    6.1039   -9.3474    0.0000 C   0  0  0  0  0  0  0  0  0  0  0  0
    6.8220   -8.9418    0.0000 C   0  0  0  0  0  0  0  0  0  0  0  0
    7.5323   -9.3609    0.0000 O   0  0  0  0  0  0  0  0  0  0  0  0
    8.2504   -8.9552    0.0000 C   0  0  0  0  0  0  0  0  0  0  0  0
    8.9607   -9.3743    0.0000 C   0  0  0  0  0  0  0  0  0  0  0  0
    9.6788   -8.9687    0.0000 C   0  0  0  0  0  0  0  0  0  0  0  0
   10.3892   -9.3878    0.0000 C   0  0  0  0  0  0  0  0  0  0  0  0
   11.1073   -8.9822    0.0000 C   0  0  0  0  0  0  0  0  0  0  0  0
   11.8176   -9.4013    0.0000 C   0  0  0  0  0  0  0  0  0  0  0  0
   12.5357   -8.9956    0.0000 C   0  0  0  0  0  0  0  0  0  0  0  0
   13.2460   -9.4147    0.0000 C   0  0  0  0  0  0  0  0  0  0  0  0
   13.9641   -9.0091    0.0000 C   0  0  0  0  0  0  0  0  0  0  0  0
   14.6745   -9.4282    0.0000 C   0  0  0  0  0  0  0  0  0  0  0  0
   15.3926   -9.0226    0.0000 C   0  0  0  0  0  0  0  0  0  0  0  0
   16.1029   -9.4417    0.0000 C   0  0  0  0  0  0  0  0  0  0  0  0
   16.8210   -9.0360    0.0000 O   0  0  0  0  0  0  0  0  0  0  0  0
   17.5313   -9.4551    0.0000 C   0  0  0  0  0  0  0  0  0  0  0  0
   18.2494   -9.0495    0.0000 C   0  0  2  0  0  0  0  0  0  0  0  0
   18.9597   -9.4686    0.0000 C   0  0  0  0  0  0  0  0  0  0  0  0
    6.8298   -8.1171    0.0000 O   0  0  0  0  0  0  0  0  0  0  0  0
   18.2572   -8.2248    0.0000 O   0  0  0  0  0  0  0  0  0  0  0  0
   16.0951  -10.2664    0.0000 O   0  0  0  0  0  0  0  0  0  0  0  0
   19.6824   -9.0711    0.0000 O   0  0  0  0  0  0  0  0  0  0  0  0
  1  2  2  0  0  0  0
  2  3  1  0  0  0  0
  3  4  2  0  0  0  0
  4  5  1  0  0  0  0
  5  6  2  0  0  0  0
  6  1  1  0  0  0  0
  2  7  1  0  0  0  0
  3  8  1  0  0  0  0
  9 10  2  0  0  0  0
 10 11  1  0  0  0  0
 11 12  1  0  0  0  0
 12 13  1  0  0  0  0
 13 14  1  0  0  0  0
 14 15  1  0  0  0  0
 15 16  1  0  0  0  0
 16 17  1  0  0  0  0
 17 18  1  0  0  0  0
 18 19  1  0  0  0  0
 19 20  1  0  0  0  0
 20 21  1  0  0  0  0
 21 22  1  0  0  0  0
 22 23  1  0  0  0  0
 23 24  1  0  0  0  0
 24 25  1  0  0  0  0
 25 26  1  0  0  0  0
 26 27  1  0  0  0  0
 27 28  1  0  0  0  0
 11 29  2  0  0  0  0
 27 30  1  1  0  0  0
 24 31  2  0  0  0  0
 28 32  1  0  0  0  0
  9  5  1  0  0  0  0
M  END
>  <cdx:fragmentId>
25

$$$$
