99403.cdx
  Mrv1902 05222410192D          

 43 48  0  0  0  0            999 V2000
    6.7981  -11.1183    0.0000 H   0  0  0  0  0  0  0  0  0  0  0  0
    7.5023   -9.8749    0.0000 H   0  0  0  0  0  0  0  0  0  0  0  0
    7.4751   -5.7500    0.0000 C   0  0  0  0  0  0  0  0  0  0  0  0
    6.7708   -6.9934    0.0000 O   0  0  0  0  0  0  0  0  0  0  0  0
    7.4819   -6.5750    0.0000 C   0  0  0  0  0  0  0  0  0  0  0  0
    8.1997   -6.9816    0.0000 O   0  0  0  0  0  0  0  0  0  0  0  0
   10.7310   -6.0787    0.0000 C   0  0  0  0  0  0  0  0  0  0  0  0
   10.7378   -6.9037    0.0000 C   0  0  0  0  0  0  0  0  0  0  0  0
    9.9553   -7.1651    0.0000 C   0  0  0  0  0  0  0  0  0  0  0  0
    9.4649   -6.5017    0.0000 C   0  0  0  0  0  0  0  0  0  0  0  0
    9.9443   -5.8302    0.0000 O   0  0  0  0  0  0  0  0  0  0  0  0
    8.9448  -10.6881    0.0000 O   0  0  0  0  0  0  0  0  0  0  0  0
    4.6581  -10.7235    0.0000 O   0  0  0  0  0  0  0  0  0  0  0  0
    6.7913   -8.6433    0.0000 C   0  0  0  0  0  0  0  0  0  0  0  0
    9.0039   -7.3920    0.0000 C   0  0  0  0  0  0  0  0  0  0  0  0
    8.2202   -8.6315    0.0000 C   0  0  0  0  0  0  0  0  0  0  0  0
    5.6745  -11.4261    0.0000 C   0  0  0  0  0  0  0  0  0  0  0  0
    6.7981  -10.2933    0.0000 C   0  0  2  0  0  0  0  0  0  0  0  0
    6.0734   -9.0617    0.0000 C   0  0  1  0  0  0  0  0  0  0  0  0
    5.3624   -9.4801    0.0000 C   0  0  0  0  0  0  0  0  0  0  0  0
    5.3692  -10.3051    0.0000 C   0  0  2  0  0  0  0  0  0  0  0  0
    6.0870  -10.7117    0.0000 C   0  0  2  0  0  0  0  0  0  0  0  0
    6.3966  -11.4774    0.0000 C   0  0  0  0  0  0  0  0  0  0  0  0
    7.2216  -11.4706    0.0000 O   0  0  0  0  0  0  0  0  0  0  0  0
    7.5159  -10.6999    0.0000 C   0  0  1  0  0  0  0  0  0  0  0  0
    8.2270  -10.2815    0.0000 C   0  0  2  0  0  0  0  0  0  0  0  0
    8.2202   -9.4565    0.0000 C   0  0  2  0  0  0  0  0  0  0  0  0
    8.9312   -9.0381    0.0000 C   0  0  0  0  0  0  0  0  0  0  0  0
    9.7179   -9.2866    0.0000 C   0  0  0  0  0  0  0  0  0  0  0  0
   10.1973   -8.6152    0.0000 C   0  0  0  0  0  0  0  0  0  0  0  0
    9.7069   -7.9518    0.0000 C   0  0  2  0  0  0  0  0  0  0  0  0
    8.9244   -8.2132    0.0000 C   0  0  1  0  0  0  0  0  0  0  0  0
    8.2065   -7.8066    0.0000 C   0  0  2  0  0  0  0  0  0  0  0  0
    7.4955   -8.2250    0.0000 C   0  0  0  0  0  0  0  0  0  0  0  0
    7.5023   -9.0499    0.0000 C   0  0  2  0  0  0  0  0  0  0  0  0
    6.7913   -9.4683    0.0000 C   0  0  1  0  0  0  0  0  0  0  0  0
    6.0530   -6.5868    0.0000 C   0  0  0  0  0  0  0  0  0  0  0  0
    6.0666   -8.2368    0.0000 O   0  0  0  0  0  0  0  0  0  0  0  0
    4.6377   -8.2485    0.0000 O   0  0  0  0  0  0  0  0  0  0  0  0
    4.6173   -5.7736    0.0000 C   0  0  0  0  0  0  0  0  0  0  0  0
    4.6241   -6.5986    0.0000 C   0  0  0  0  0  0  0  0  0  0  0  0
    5.3420   -7.0052    0.0000 C   0  0  0  0  0  0  0  0  0  0  0  0
    5.3488   -7.8302    0.0000 C   0  0  0  0  0  0  0  0  0  0  0  0
 18  1  1  6  0  0  0
 35  2  1  6  0  0  0
 19 38  1  6  0  0  0
 33  6  1  6  0  0  0
  6  5  1  0  0  0  0
  5  3  1  0  0  0  0
  5  4  2  0  0  0  0
 31  9  1  6  0  0  0
 11  7  1  0  0  0  0
  8  7  2  0  0  0  0
  9  8  1  0  0  0  0
 10  9  2  0  0  0  0
 11 10  1  0  0  0  0
 26 12  1  6  0  0  0
 21 13  1  6  0  0  0
 36 14  1  1  0  0  0
 32 15  1  6  0  0  0
 27 16  1  1  0  0  0
 22 17  1  1  0  0  0
 22 18  1  0  0  0  0
 32 28  1  0  0  0  0
 35 27  1  0  0  0  0
 18 25  1  0  0  0  0
 36 18  1  0  0  0  0
 36 19  1  0  0  0  0
 20 19  1  0  0  0  0
 21 20  1  0  0  0  0
 22 21  1  0  0  0  0
 22 23  1  6  0  0  0
 24 23  1  0  0  0  0
 25 24  1  6  0  0  0
 26 25  1  0  0  0  0
 27 26  1  0  0  0  0
 28 27  1  0  0  0  0
 29 28  2  0  0  0  0
 30 29  1  0  0  0  0
 31 30  1  0  0  0  0
 32 31  1  0  0  0  0
 33 32  1  0  0  0  0
 34 33  1  0  0  0  0
 35 34  1  0  0  0  0
 36 35  1  0  0  0  0
 42 37  1  0  0  0  0
 43 38  1  0  0  0  0
 43 39  2  0  0  0  0
 41 40  1  0  0  0  0
 42 41  2  0  0  0  0
 43 42  1  0  0  0  0
M  END
>  <cdx:fragmentId>
190489

$$$$
