99402.cdx
  Mrv1902 05222410192D          

 31 34  0  0  0  0            999 V2000
    4.9274   -6.8613    0.0000 C   0  0  0  0  0  0  0  0  0  0  0  0
    4.9274   -7.6863    0.0000 C   0  0  0  0  0  0  0  0  0  0  0  0
    5.6419   -8.0987    0.0000 C   0  0  0  0  0  0  0  0  0  0  0  0
    6.3564   -7.6863    0.0000 C   0  0  0  0  0  0  0  0  0  0  0  0
    6.3564   -6.8613    0.0000 C   0  0  0  0  0  0  0  0  0  0  0  0
    5.6419   -6.4487    0.0000 C   0  0  0  0  0  0  0  0  0  0  0  0
    7.0708   -8.0987    0.0000 O   0  0  0  0  0  0  0  0  0  0  0  0
    7.7853   -7.6863    0.0000 C   0  0  0  0  0  0  0  0  0  0  0  0
    7.7853   -6.8613    0.0000 C   0  0  0  0  0  0  0  0  0  0  0  0
    7.0708   -6.4487    0.0000 C   0  0  0  0  0  0  0  0  0  0  0  0
    8.4998   -6.4487    0.0000 C   0  0  0  0  0  0  0  0  0  0  0  0
    8.4998   -5.6238    0.0000 C   0  0  0  0  0  0  0  0  0  0  0  0
    7.0708   -5.6238    0.0000 O   0  0  0  0  0  0  0  0  0  0  0  0
    9.2143   -6.8613    0.0000 C   0  0  0  0  0  0  0  0  0  0  0  0
    9.9287   -6.4487    0.0000 C   0  0  0  0  0  0  0  0  0  0  0  0
    9.9287   -5.6238    0.0000 C   0  0  0  0  0  0  0  0  0  0  0  0
    9.2143   -5.2113    0.0000 C   0  0  0  0  0  0  0  0  0  0  0  0
    4.3143   -8.2383    0.0000 O   0  0  0  0  0  0  0  0  0  0  0  0
    4.6499   -8.9920    0.0000 C   0  0  1  0  0  0  0  0  0  0  0  0
    5.4704   -8.9057    0.0000 C   0  0  0  0  0  0  0  0  0  0  0  0
    4.2374   -9.7064    0.0000 C   0  0  2  0  0  0  0  0  0  0  0  0
    4.6499  -10.4209    0.0000 C   0  0  0  0  0  0  0  0  0  0  0  0
    3.4124   -9.7064    0.0000 C   0  0  0  0  0  0  0  0  0  0  0  0
    2.9999   -8.9920    0.0000 O   0  0  0  0  0  0  0  0  0  0  0  0
    5.0624   -9.7064    0.0000 H   0  0  0  0  0  0  0  0  0  0  0  0
    3.8249   -8.9920    0.0000 H   0  0  0  0  0  0  0  0  0  0  0  0
    9.2143   -4.3862    0.0000 O   0  0  0  0  0  0  0  0  0  0  0  0
    8.4998   -3.9738    0.0000 C   0  0  0  0  0  0  0  0  0  0  0  0
   10.6432   -5.2113    0.0000 O   0  0  0  0  0  0  0  0  0  0  0  0
   10.6432   -6.8613    0.0000 O   0  0  0  0  0  0  0  0  0  0  0  0
   10.6432   -7.6862    0.0000 C   0  0  0  0  0  0  0  0  0  0  0  0
  1  2  1  0  0  0  0
  2  3  2  0  0  0  0
  3  4  1  0  0  0  0
  4  5  2  0  0  0  0
  5  6  1  0  0  0  0
  6  1  2  0  0  0  0
  4  7  1  0  0  0  0
  7  8  1  0  0  0  0
  8  9  2  0  0  0  0
  9 10  1  0  0  0  0
 10  5  1  0  0  0  0
  9 11  1  0  0  0  0
 11 12  2  0  0  0  0
 13 10  2  0  0  0  0
 11 14  1  0  0  0  0
 14 15  2  0  0  0  0
 15 16  1  0  0  0  0
 16 17  2  0  0  0  0
 17 12  1  0  0  0  0
  2 18  1  0  0  0  0
 18 19  1  0  0  0  0
 19 20  1  0  0  0  0
 20  3  1  0  0  0  0
 19 21  1  0  0  0  0
 21 22  1  0  0  0  0
 21 23  1  0  0  0  0
 23 24  1  0  0  0  0
 21 25  1  1  0  0  0
 19 26  1  6  0  0  0
 17 27  1  0  0  0  0
 27 28  1  0  0  0  0
 16 29  1  0  0  0  0
 15 30  1  0  0  0  0
 30 31  1  0  0  0  0
M  END
>  <cdx:fragmentId>
5

$$$$
