99407.cdx
  Mrv1902 05222410192D          

 56 61  0  0  0  0            999 V2000
   10.2878   -4.5735    0.0000 C   0  0  0  0  0  0  0  0  0  0  0  0
   10.2878   -5.3985    0.0000 C   0  0  0  0  0  0  0  0  0  0  0  0
    9.5733   -5.8110    0.0000 C   0  0  0  0  0  0  0  0  0  0  0  0
    9.5733   -6.6360    0.0000 O   0  0  0  0  0  0  0  0  0  0  0  0
    8.8589   -5.3985    0.0000 C   0  0  0  0  0  0  0  0  0  0  0  0
    8.1444   -5.8110    0.0000 C   0  0  0  0  0  0  0  0  0  0  0  0
    8.1444   -6.6360    0.0000 O   0  0  0  0  0  0  0  0  0  0  0  0
    7.4299   -5.3985    0.0000 C   0  0  0  0  0  0  0  0  0  0  0  0
    7.4299   -4.5735    0.0000 C   0  0  0  0  0  0  0  0  0  0  0  0
    8.1444   -4.1610    0.0000 C   0  0  0  0  0  0  0  0  0  0  0  0
    8.8589   -4.5735    0.0000 C   0  0  0  0  0  0  0  0  0  0  0  0
    9.5733   -4.1610    0.0000 O   0  0  0  0  0  0  0  0  0  0  0  0
   11.0023   -4.1610    0.0000 C   0  0  0  0  0  0  0  0  0  0  0  0
   11.7168   -4.5735    0.0000 C   0  0  0  0  0  0  0  0  0  0  0  0
   12.4312   -4.1610    0.0000 C   0  0  0  0  0  0  0  0  0  0  0  0
   13.1457   -4.5735    0.0000 O   0  0  0  0  0  0  0  0  0  0  0  0
   12.4312   -3.3360    0.0000 C   0  0  0  0  0  0  0  0  0  0  0  0
   13.1457   -2.9235    0.0000 O   0  0  0  0  0  0  0  0  0  0  0  0
   11.7168   -2.9235    0.0000 C   0  0  0  0  0  0  0  0  0  0  0  0
   11.0023   -3.3360    0.0000 C   0  0  0  0  0  0  0  0  0  0  0  0
    6.7155   -4.1610    0.0000 O   0  0  0  0  0  0  0  0  0  0  0  0
    6.0010   -4.5735    0.0000 C   0  0  1  0  0  0  0  0  0  0  0  0
    6.0010   -5.3985    0.0000 C   0  0  2  0  0  0  0  0  0  0  0  0
    6.7155   -5.8110    0.0000 O   0  0  0  0  0  0  0  0  0  0  0  0
    5.2865   -5.8110    0.0000 C   0  0  1  0  0  0  0  0  0  0  0  0
    5.2865   -6.6360    0.0000 O   0  0  0  0  0  0  0  0  0  0  0  0
    4.5720   -5.3985    0.0000 C   0  0  2  0  0  0  0  0  0  0  0  0
    3.8576   -5.8110    0.0000 O   0  0  0  0  0  0  0  0  0  0  0  0
    4.5720   -4.5735    0.0000 C   0  0  2  0  0  0  0  0  0  0  0  0
    5.2865   -4.1610    0.0000 O   0  0  0  0  0  0  0  0  0  0  0  0
    3.8576   -4.1610    0.0000 C   0  0  0  0  0  0  0  0  0  0  0  0
    3.1431   -4.5735    0.0000 O   0  0  0  0  0  0  0  0  0  0  0  0
    5.6871   -6.8495    0.0000 O   0  0  0  0  0  0  0  0  0  0  0  0
    5.6871   -7.6745    0.0000 C   0  0  0  0  0  0  0  0  0  0  0  0
    6.4717   -7.9295    0.0000 C   0  0  2  0  0  0  0  0  0  0  0  0
    6.9566   -7.2620    0.0000 C   0  0  2  0  0  0  0  0  0  0  0  0
    6.4717   -6.5946    0.0000 C   0  0  2  0  0  0  0  0  0  0  0  0
    7.7816   -7.2620    0.0000 O   0  0  0  0  0  0  0  0  0  0  0  0
    7.1861   -8.3420    0.0000 O   0  0  0  0  0  0  0  0  0  0  0  0
    6.4717   -8.7545    0.0000 C   0  0  0  0  0  0  0  0  0  0  0  0
    5.7572   -9.1670    0.0000 O   0  0  0  0  0  0  0  0  0  0  0  0
    5.7534  -10.0055    0.0000 C   0  0  0  0  0  0  0  0  0  0  0  0
    6.4693  -10.4154    0.0000 O   0  0  0  0  0  0  0  0  0  0  0  0
    5.0404  -10.4206    0.0000 C   0  0  0  0  0  0  0  0  0  0  0  0
    5.0434  -11.2456    0.0000 C   0  0  0  0  0  0  0  0  0  0  0  0
    4.3304  -11.6607    0.0000 C   0  0  0  0  0  0  0  0  0  0  0  0
    3.6144  -11.2508    0.0000 C   0  0  0  0  0  0  0  0  0  0  0  0
    2.9015  -11.6659    0.0000 C   0  0  0  0  0  0  0  0  0  0  0  0
    2.9045  -12.4909    0.0000 C   0  0  0  0  0  0  0  0  0  0  0  0
    3.6204  -12.9008    0.0000 C   0  0  0  0  0  0  0  0  0  0  0  0
    4.3334  -12.4857    0.0000 C   0  0  0  0  0  0  0  0  0  0  0  0
    2.1915  -12.9060    0.0000 O   0  0  0  0  0  0  0  0  0  0  0  0
    3.6234  -13.7258    0.0000 O   0  0  0  0  0  0  0  0  0  0  0  0
    4.3394  -14.1357    0.0000 C   0  0  0  0  0  0  0  0  0  0  0  0
    2.1855  -11.2560    0.0000 O   0  0  0  0  0  0  0  0  0  0  0  0
    1.4725  -11.6711    0.0000 C   0  0  0  0  0  0  0  0  0  0  0  0
  1  2  2  0  0  0  0
  2  3  1  0  0  0  0
  3  4  2  0  0  0  0
  3  5  1  0  0  0  0
  5  6  1  0  0  0  0
  6  7  1  0  0  0  0
  6  8  2  0  0  0  0
  8  9  1  0  0  0  0
  9 10  2  0  0  0  0
 10 11  1  0  0  0  0
  5 11  2  0  0  0  0
 11 12  1  0  0  0  0
  1 12  1  0  0  0  0
  1 13  1  0  0  0  0
 13 14  1  0  0  0  0
 14 15  2  0  0  0  0
 15 16  1  0  0  0  0
 15 17  1  0  0  0  0
 17 18  1  0  0  0  0
 17 19  2  0  0  0  0
 19 20  1  0  0  0  0
 13 20  2  0  0  0  0
 22 21  1  1  0  0  0
 22 23  1  0  0  0  0
 23 24  1  6  0  0  0
 23 25  1  0  0  0  0
 25 26  1  1  0  0  0
 25 27  1  0  0  0  0
 27 28  1  6  0  0  0
 27 29  1  0  0  0  0
 29 30  1  0  0  0  0
 29 31  1  1  0  0  0
 31 32  1  0  0  0  0
 22 30  1  0  0  0  0
  9 21  1  0  0  0  0
 33 34  1  0  0  0  0
 34 35  1  0  0  0  0
 35 36  1  0  0  0  0
 36 37  1  0  0  0  0
 37 33  1  0  0  0  0
 36 38  1  6  0  0  0
 35 39  1  6  0  0  0
 35 40  1  1  0  0  0
 40 41  1  0  0  0  0
 37 24  1  1  0  0  0
 42 43  2  0  0  0  0
 42 44  1  0  0  0  0
 44 45  2  0  0  0  0
 45 46  1  0  0  0  0
 46 47  2  0  0  0  0
 47 48  1  0  0  0  0
 48 49  2  0  0  0  0
 49 50  1  0  0  0  0
 50 51  2  0  0  0  0
 51 46  1  0  0  0  0
 49 52  1  0  0  0  0
 50 53  1  0  0  0  0
 53 54  1  0  0  0  0
 48 55  1  0  0  0  0
 55 56  1  0  0  0  0
 42 41  1  0  0  0  0
M  END
>  <cdx:fragmentId>
5

$$$$
