99411.cdx
  Mrv1902 05222410202D          

 19 19  0  0  0  0            999 V2000
    7.1805   -9.0560    0.0000 C   0  0  0  0  0  0  0  0  0  0  0  0
    6.4660   -8.6435    0.0000 C   0  0  0  0  0  0  0  0  0  0  0  0
    5.7516   -9.0560    0.0000 C   0  0  0  0  0  0  0  0  0  0  0  0
    7.1805   -9.8810    0.0000 O   0  0  0  0  0  0  0  0  0  0  0  0
    6.4660   -7.8185    0.0000 O   0  0  0  0  0  0  0  0  0  0  0  0
    5.0371   -8.6435    0.0000 O   0  0  0  0  0  0  0  0  0  0  0  0
    7.8950   -8.6435    0.0000 C   0  0  0  0  0  0  0  0  0  0  0  0
    8.6095   -9.0560    0.0000 C   0  0  0  0  0  0  0  0  0  0  0  0
    9.3239   -8.6435    0.0000 C   0  0  0  0  0  0  0  0  0  0  0  0
    9.3239   -7.8185    0.0000 C   0  0  0  0  0  0  0  0  0  0  0  0
    8.6095   -7.4060    0.0000 C   0  0  0  0  0  0  0  0  0  0  0  0
    7.8950   -7.8185    0.0000 C   0  0  0  0  0  0  0  0  0  0  0  0
   10.0384   -9.0560    0.0000 O   0  0  0  0  0  0  0  0  0  0  0  0
   10.7529   -8.6435    0.0000 C   0  0  0  0  0  0  0  0  0  0  0  0
   10.0384   -7.4060    0.0000 O   0  0  0  0  0  0  0  0  0  0  0  0
    4.3226   -9.0560    0.0000 C   0  0  0  0  0  0  0  0  0  0  0  0
    3.6082   -8.6435    0.0000 C   0  0  0  0  0  0  0  0  0  0  0  0
    2.8937   -9.0560    0.0000 C   0  0  0  0  0  0  0  0  0  0  0  0
    2.1792   -8.6435    0.0000 C   0  0  0  0  0  0  0  0  0  0  0  0
  1  2  1  0  0  0  0
  2  3  1  0  0  0  0
  1  4  1  0  0  0  0
  2  5  1  0  0  0  0
  3  6  1  0  0  0  0
  7  8  1  0  0  0  0
  8  9  2  0  0  0  0
  9 10  1  0  0  0  0
 10 11  2  0  0  0  0
 11 12  1  0  0  0  0
  7 12  2  0  0  0  0
 13 14  1  0  0  0  0
  9 13  1  0  0  0  0
 10 15  1  0  0  0  0
  1  7  1  0  0  0  0
  6 16  1  0  0  0  0
 16 17  1  0  0  0  0
 17 18  1  0  0  0  0
 18 19  1  0  0  0  0
M  END
>  <cdx:fragmentId>
17

$$$$
