99413.cdx
  Mrv1902 05222410192D          

 48 52  0  0  0  0            999 V2000
   14.2157  -11.1361    0.0000 C   0  0  0  0  0  0  0  0  0  0  0  0
   13.8029  -11.8510    0.0000 C   0  0  0  0  0  0  0  0  0  0  0  0
   12.9774  -11.8510    0.0000 C   0  0  0  0  0  0  0  0  0  0  0  0
   12.5647  -11.1361    0.0000 C   0  0  0  0  0  0  0  0  0  0  0  0
   12.9774  -10.4212    0.0000 C   0  0  0  0  0  0  0  0  0  0  0  0
   13.8029  -10.4212    0.0000 C   0  0  0  0  0  0  0  0  0  0  0  0
   15.0412  -11.1361    0.0000 O   0  0  0  0  0  0  0  0  0  0  0  0
   14.2157  -12.5659    0.0000 O   0  0  0  0  0  0  0  0  0  0  0  0
   15.0412  -12.5659    0.0000 C   0  0  0  0  0  0  0  0  0  0  0  0
   11.2539  -11.8040    0.0000 O   0  0  0  0  0  0  0  0  0  0  0  0
   11.7391  -11.1361    0.0000 C   0  0  0  0  0  0  0  0  0  0  0  0
   11.2539  -10.4682    0.0000 C   0  0  0  0  0  0  0  0  0  0  0  0
   10.4688  -10.7233    0.0000 C   0  0  0  0  0  0  0  0  0  0  0  0
    9.7539  -10.3106    0.0000 C   0  0  0  0  0  0  0  0  0  0  0  0
    9.0390  -10.7233    0.0000 C   0  0  0  0  0  0  0  0  0  0  0  0
    9.0390  -11.5489    0.0000 C   0  0  0  0  0  0  0  0  0  0  0  0
    9.7539  -11.9616    0.0000 C   0  0  0  0  0  0  0  0  0  0  0  0
   10.4688  -11.5489    0.0000 C   0  0  0  0  0  0  0  0  0  0  0  0
    9.7539  -12.7871    0.0000 O   0  0  0  0  0  0  0  0  0  0  0  0
    9.0390  -13.1999    0.0000 C   0  0  0  0  0  0  0  0  0  0  0  0
    8.3240  -10.3106    0.0000 C   0  0  0  0  0  0  0  0  0  0  0  0
    7.6091  -10.7233    0.0000 C   0  0  0  0  0  0  0  0  0  0  0  0
    6.8942  -10.3106    0.0000 C   0  0  0  0  0  0  0  0  0  0  0  0
    6.1793  -10.7233    0.0000 O   0  0  0  0  0  0  0  0  0  0  0  0
   11.5090   -9.6831    0.0000 C   0  0  0  0  0  0  0  0  0  0  0  0
   12.3165   -9.5115    0.0000 O   0  0  0  0  0  0  0  0  0  0  0  0
   16.6746   -9.7067    0.0000 C   0  0  2  0  0  0  0  0  0  0  0  0
   16.2604   -8.9926    0.0000 C   0  0  2  0  0  0  0  0  0  0  0  0
   15.4349   -8.9943    0.0000 C   0  0  1  0  0  0  0  0  0  0  0  0
   15.0236   -9.7100    0.0000 C   0  0  2  0  0  0  0  0  0  0  0  0
   15.4378  -10.4241    0.0000 C   0  0  1  0  0  0  0  0  0  0  0  0
   16.2633  -10.4225    0.0000 O   0  0  0  0  0  0  0  0  0  0  0  0
   17.5002   -9.7050    0.0000 C   0  0  0  0  0  0  0  0  0  0  0  0
   15.0207   -8.2802    0.0000 O   0  0  0  0  0  0  0  0  0  0  0  0
   16.6718   -8.2769    0.0000 O   0  0  0  0  0  0  0  0  0  0  0  0
   14.1981   -9.7117    0.0000 O   0  0  0  0  0  0  0  0  0  0  0  0
   17.9115   -8.9893    0.0000 O   0  0  0  0  0  0  0  0  0  0  0  0
    4.7424   -9.0674    0.0000 C   0  0  2  0  0  0  0  0  0  0  0  0
    4.0268   -9.4791    0.0000 C   0  0  2  0  0  0  0  0  0  0  0  0
    4.0256  -10.3046    0.0000 C   0  0  1  0  0  0  0  0  0  0  0  0
    4.7399  -10.7184    0.0000 C   0  0  2  0  0  0  0  0  0  0  0  0
    5.4555  -10.3067    0.0000 C   0  0  1  0  0  0  0  0  0  0  0  0
    5.4567   -9.4812    0.0000 O   0  0  0  0  0  0  0  0  0  0  0  0
    4.7436   -8.2419    0.0000 C   0  0  0  0  0  0  0  0  0  0  0  0
    3.3101  -10.7163    0.0000 O   0  0  0  0  0  0  0  0  0  0  0  0
    3.3125   -9.0653    0.0000 O   0  0  0  0  0  0  0  0  0  0  0  0
    4.7387  -11.5439    0.0000 O   0  0  0  0  0  0  0  0  0  0  0  0
    4.0293   -7.8281    0.0000 O   0  0  0  0  0  0  0  0  0  0  0  0
  1  2  1  0  0  0  0
  2  3  2  0  0  0  0
  3  4  1  0  0  0  0
  4  5  2  0  0  0  0
  5  6  1  0  0  0  0
  1  6  2  0  0  0  0
  1  7  1  0  0  0  0
  8  9  1  0  0  0  0
  2  8  1  0  0  0  0
 10 11  1  0  0  0  0
 11 12  1  0  0  0  0
 12 13  1  0  0  0  0
 13 14  1  0  0  0  0
 14 15  2  0  0  0  0
 15 16  1  0  0  0  0
 16 17  2  0  0  0  0
 17 18  1  0  0  0  0
 13 18  2  0  0  0  0
 10 18  1  0  0  0  0
 19 20  1  0  0  0  0
 17 19  1  0  0  0  0
 21 22  2  0  0  0  0
 22 23  1  0  0  0  0
 23 24  1  0  0  0  0
 15 21  1  0  0  0  0
 25 26  1  0  0  0  0
 12 25  1  0  0  0  0
  4 11  1  0  0  0  0
 27 28  1  0  0  0  0
 28 29  1  0  0  0  0
 29 30  1  0  0  0  0
 30 31  1  0  0  0  0
 31 32  1  0  0  0  0
 32 27  1  0  0  0  0
 27 33  1  1  0  0  0
 29 34  1  1  0  0  0
 28 35  1  6  0  0  0
 30 36  1  6  0  0  0
 33 37  1  0  0  0  0
 38 39  1  0  0  0  0
 39 40  1  0  0  0  0
 40 41  1  0  0  0  0
 41 42  1  0  0  0  0
 42 43  1  0  0  0  0
 43 38  1  0  0  0  0
 38 44  1  1  0  0  0
 40 45  1  1  0  0  0
 39 46  1  6  0  0  0
 41 47  1  6  0  0  0
 44 48  1  0  0  0  0
 42 24  1  1  0  0  0
 31  7  1  1  0  0  0
M  END
>  <cdx:fragmentId>
23

$$$$
