99416.cdx
  Mrv1902 05222410192D          

 38 41  0  0  0  0            999 V2000
    7.6774   -6.9712    0.0000 C   0  0  0  0  0  0  0  0  0  0  0  0
    7.6774   -7.7963    0.0000 C   0  0  0  0  0  0  0  0  0  0  0  0
    8.3919   -8.2088    0.0000 C   0  0  0  0  0  0  0  0  0  0  0  0
    9.1064   -7.7963    0.0000 C   0  0  0  0  0  0  0  0  0  0  0  0
    9.1064   -6.9712    0.0000 C   0  0  0  0  0  0  0  0  0  0  0  0
    8.3919   -6.5587    0.0000 C   0  0  0  0  0  0  0  0  0  0  0  0
    9.8208   -8.2088    0.0000 C   0  0  0  0  0  0  0  0  0  0  0  0
   10.5353   -7.7963    0.0000 C   0  0  0  0  0  0  0  0  0  0  0  0
   10.5353   -6.9712    0.0000 C   0  0  0  0  0  0  0  0  0  0  0  0
    9.8208   -6.5587    0.0000 O   0  0  0  0  0  0  0  0  0  0  0  0
    9.8208   -9.0337    0.0000 O   0  0  0  0  0  0  0  0  0  0  0  0
   11.2498   -9.0337    0.0000 C   0  0  0  0  0  0  0  0  0  0  0  0
   11.2498   -8.2088    0.0000 C   0  0  0  0  0  0  0  0  0  0  0  0
   11.9643   -9.4462    0.0000 C   0  0  0  0  0  0  0  0  0  0  0  0
   12.6787   -9.0337    0.0000 C   0  0  0  0  0  0  0  0  0  0  0  0
   12.6787   -8.2088    0.0000 C   0  0  0  0  0  0  0  0  0  0  0  0
   11.9643   -7.7963    0.0000 C   0  0  0  0  0  0  0  0  0  0  0  0
    6.9630   -6.5587    0.0000 O   0  0  0  0  0  0  0  0  0  0  0  0
   13.3932   -7.7963    0.0000 O   0  0  0  0  0  0  0  0  0  0  0  0
   13.3932   -9.4462    0.0000 O   0  0  0  0  0  0  0  0  0  0  0  0
   14.1077   -8.2088    0.0000 C   0  0  0  0  0  0  0  0  0  0  0  0
    4.8309   -6.9797    0.0000 C   0  0  2  0  0  0  0  0  0  0  0  0
    4.8309   -7.8047    0.0000 C   0  0  2  0  0  0  0  0  0  0  0  0
    5.5454   -8.2172    0.0000 C   0  0  1  0  0  0  0  0  0  0  0  0
    6.2599   -7.8047    0.0000 C   0  0  2  0  0  0  0  0  0  0  0  0
    6.2599   -6.9797    0.0000 C   0  0  1  0  0  0  0  0  0  0  0  0
    5.5454   -6.5672    0.0000 O   0  0  0  0  0  0  0  0  0  0  0  0
    4.1164   -6.5672    0.0000 C   0  0  0  0  0  0  0  0  0  0  0  0
    5.5454   -9.0422    0.0000 O   0  0  0  0  0  0  0  0  0  0  0  0
    4.1164   -8.2172    0.0000 O   0  0  0  0  0  0  0  0  0  0  0  0
    6.9743   -8.2172    0.0000 O   0  0  0  0  0  0  0  0  0  0  0  0
    3.4020   -6.9797    0.0000 O   0  0  0  0  0  0  0  0  0  0  0  0
    2.6875   -6.5672    0.0000 C   0  0  0  0  0  0  0  0  0  0  0  0
    1.9730   -6.9797    0.0000 C   0  0  0  0  0  0  0  0  0  0  0  0
    1.2586   -6.5672    0.0000 C   0  0  0  0  0  0  0  0  0  0  0  0
    0.5441   -6.9797    0.0000 O   0  0  0  0  0  0  0  0  0  0  0  0
    2.6875   -5.7422    0.0000 O   0  0  0  0  0  0  0  0  0  0  0  0
    1.2586   -5.7422    0.0000 O   0  0  0  0  0  0  0  0  0  0  0  0
  1  2  2  0  0  0  0
  2  3  1  0  0  0  0
  3  4  2  0  0  0  0
  4  5  1  0  0  0  0
  5  6  2  0  0  0  0
  6  1  1  0  0  0  0
  4  7  1  0  0  0  0
  7  8  1  0  0  0  0
  8  9  2  0  0  0  0
  9 10  1  0  0  0  0
 10  5  1  0  0  0  0
  7 11  2  0  0  0  0
 12 13  2  0  0  0  0
 13  8  1  0  0  0  0
 12 14  1  0  0  0  0
 14 15  2  0  0  0  0
 15 16  1  0  0  0  0
 16 17  2  0  0  0  0
 17 13  1  0  0  0  0
  1 18  1  0  0  0  0
 16 19  1  0  0  0  0
 15 20  1  0  0  0  0
 19 21  1  0  0  0  0
 22 23  1  0  0  0  0
 23 24  1  0  0  0  0
 24 25  1  0  0  0  0
 25 26  1  0  0  0  0
 26 27  1  0  0  0  0
 27 22  1  0  0  0  0
 22 28  1  1  0  0  0
 24 29  1  1  0  0  0
 23 30  1  6  0  0  0
 25 31  1  6  0  0  0
 28 32  1  0  0  0  0
 26 18  1  1  0  0  0
 32 33  1  0  0  0  0
 33 34  1  0  0  0  0
 34 35  1  0  0  0  0
 35 36  1  0  0  0  0
 33 37  2  0  0  0  0
 35 38  2  0  0  0  0
M  END
>  <cdx:fragmentId>
5

$$$$
