99418.cdx
  Mrv1902 05222410282D          

 26 29  0  0  0  0            999 V2000
    7.1956   -8.0437    0.0000 C   0  0  0  0  0  0  0  0  0  0  0  0
    7.9803   -7.7888    0.0000 C   0  0  0  0  0  0  0  0  0  0  0  0
    8.4652   -8.4563    0.0000 O   0  0  0  0  0  0  0  0  0  0  0  0
    7.9803   -9.1237    0.0000 C   0  0  0  0  0  0  0  0  0  0  0  0
    7.1956   -8.8688    0.0000 C   0  0  0  0  0  0  0  0  0  0  0  0
    6.4110   -9.1237    0.0000 C   0  0  0  0  0  0  0  0  0  0  0  0
    5.9261   -8.4563    0.0000 O   0  0  0  0  0  0  0  0  0  0  0  0
    6.4110   -7.7888    0.0000 C   0  0  0  0  0  0  0  0  0  0  0  0
    6.0278   -7.0581    0.0000 C   0  0  0  0  0  0  0  0  0  0  0  0
    5.2041   -7.0112    0.0000 C   0  0  0  0  0  0  0  0  0  0  0  0
    4.8329   -6.2744    0.0000 C   0  0  0  0  0  0  0  0  0  0  0  0
    5.2854   -5.5846    0.0000 C   0  0  0  0  0  0  0  0  0  0  0  0
    6.1091   -5.6315    0.0000 C   0  0  0  0  0  0  0  0  0  0  0  0
    6.4803   -6.3683    0.0000 C   0  0  0  0  0  0  0  0  0  0  0  0
    4.9142   -4.8478    0.0000 O   0  0  0  0  0  0  0  0  0  0  0  0
    4.0906   -4.8008    0.0000 C   0  0  0  0  0  0  0  0  0  0  0  0
    4.0093   -6.2275    0.0000 O   0  0  0  0  0  0  0  0  0  0  0  0
    8.3428   -9.8811    0.0000 C   0  0  0  0  0  0  0  0  0  0  0  0
    9.1652   -9.9460    0.0000 C   0  0  0  0  0  0  0  0  0  0  0  0
    9.5202  -10.6908    0.0000 C   0  0  0  0  0  0  0  0  0  0  0  0
    9.0527  -11.3705    0.0000 C   0  0  0  0  0  0  0  0  0  0  0  0
    8.2303  -11.3056    0.0000 C   0  0  0  0  0  0  0  0  0  0  0  0
    7.8753  -10.5609    0.0000 C   0  0  0  0  0  0  0  0  0  0  0  0
    9.4077  -12.1153    0.0000 O   0  0  0  0  0  0  0  0  0  0  0  0
   10.2301  -12.1802    0.0000 C   0  0  0  0  0  0  0  0  0  0  0  0
   10.3426  -10.7557    0.0000 O   0  0  0  0  0  0  0  0  0  0  0  0
  1  2  1  0  0  0  0
  2  3  1  0  0  0  0
  3  4  1  0  0  0  0
  4  5  1  0  0  0  0
  5  6  1  0  0  0  0
  6  7  1  0  0  0  0
  7  8  1  0  0  0  0
  1  8  1  0  0  0  0
  1  5  1  0  0  0  0
  9 10  1  0  0  0  0
 10 11  2  0  0  0  0
 11 12  1  0  0  0  0
 12 13  2  0  0  0  0
 13 14  1  0  0  0  0
  9 14  2  0  0  0  0
 15 16  1  0  0  0  0
 12 15  1  0  0  0  0
 11 17  1  0  0  0  0
 18 19  1  0  0  0  0
 19 20  2  0  0  0  0
 20 21  1  0  0  0  0
 21 22  2  0  0  0  0
 22 23  1  0  0  0  0
 18 23  2  0  0  0  0
 24 25  1  0  0  0  0
 21 24  1  0  0  0  0
 20 26  1  0  0  0  0
  9  8  1  0  0  0  0
 18  4  1  0  0  0  0
M  END
>  <cdx:fragmentId>
32

$$$$
