99417.cdx
  Mrv1902 05222410192D          

 19 19  0  0  0  0            999 V2000
    6.6305   -9.0697    0.0000 C   0  0  0  0  0  0  0  0  0  0  0  0
    5.9160   -8.6572    0.0000 C   0  0  0  0  0  0  0  0  0  0  0  0
    5.2016   -9.0697    0.0000 C   0  0  0  0  0  0  0  0  0  0  0  0
    6.6305   -9.8947    0.0000 O   0  0  0  0  0  0  0  0  0  0  0  0
    5.9160   -7.8322    0.0000 O   0  0  0  0  0  0  0  0  0  0  0  0
    4.4871   -8.6572    0.0000 O   0  0  0  0  0  0  0  0  0  0  0  0
    7.3450   -8.6572    0.0000 C   0  0  0  0  0  0  0  0  0  0  0  0
    8.0595   -9.0697    0.0000 C   0  0  0  0  0  0  0  0  0  0  0  0
    8.7739   -8.6572    0.0000 C   0  0  0  0  0  0  0  0  0  0  0  0
    8.7739   -7.8322    0.0000 C   0  0  0  0  0  0  0  0  0  0  0  0
    8.0595   -7.4197    0.0000 C   0  0  0  0  0  0  0  0  0  0  0  0
    7.3450   -7.8322    0.0000 C   0  0  0  0  0  0  0  0  0  0  0  0
    9.4884   -9.0697    0.0000 O   0  0  0  0  0  0  0  0  0  0  0  0
   10.2029   -8.6572    0.0000 C   0  0  0  0  0  0  0  0  0  0  0  0
    9.4884   -7.4197    0.0000 O   0  0  0  0  0  0  0  0  0  0  0  0
    8.0595   -6.5947    0.0000 O   0  0  0  0  0  0  0  0  0  0  0  0
    3.7726   -9.0697    0.0000 C   0  0  0  0  0  0  0  0  0  0  0  0
    3.0582   -8.6572    0.0000 C   0  0  0  0  0  0  0  0  0  0  0  0
    3.7726   -9.8947    0.0000 C   0  0  0  0  0  0  0  0  0  0  0  0
  1  2  1  0  0  0  0
  2  3  1  0  0  0  0
  1  4  1  0  0  0  0
  2  5  1  0  0  0  0
  3  6  1  0  0  0  0
  7  8  1  0  0  0  0
  8  9  2  0  0  0  0
  9 10  1  0  0  0  0
 10 11  2  0  0  0  0
 11 12  1  0  0  0  0
  7 12  2  0  0  0  0
 13 14  1  0  0  0  0
  9 13  1  0  0  0  0
 10 15  1  0  0  0  0
  1  7  1  0  0  0  0
 11 16  1  0  0  0  0
  6 17  1  0  0  0  0
 17 18  1  0  0  0  0
 17 19  1  0  0  0  0
M  END
>  <cdx:fragmentId>
17

$$$$
