99415.cdx
  Mrv1902 05222410182D          

 20 22  0  0  0  0            999 V2000
    4.4324   -6.9300    0.0000 C   0  0  0  0  0  0  0  0  0  0  0  0
    4.4324   -7.7550    0.0000 C   0  0  0  0  0  0  0  0  0  0  0  0
    5.1469   -8.1675    0.0000 C   0  0  0  0  0  0  0  0  0  0  0  0
    5.8614   -7.7550    0.0000 C   0  0  0  0  0  0  0  0  0  0  0  0
    5.8614   -6.9300    0.0000 C   0  0  0  0  0  0  0  0  0  0  0  0
    5.1469   -6.5175    0.0000 C   0  0  0  0  0  0  0  0  0  0  0  0
    6.6460   -8.0099    0.0000 O   0  0  0  0  0  0  0  0  0  0  0  0
    7.1309   -7.3425    0.0000 C   0  0  0  0  0  0  0  0  0  0  0  0
    6.6460   -6.6751    0.0000 C   0  0  0  0  0  0  0  0  0  0  0  0
    7.9559   -7.3425    0.0000 C   0  0  0  0  0  0  0  0  0  0  0  0
    8.3684   -8.0570    0.0000 C   0  0  0  0  0  0  0  0  0  0  0  0
    9.1934   -8.0570    0.0000 C   0  0  0  0  0  0  0  0  0  0  0  0
    9.6059   -7.3425    0.0000 C   0  0  0  0  0  0  0  0  0  0  0  0
    9.1934   -6.6280    0.0000 C   0  0  0  0  0  0  0  0  0  0  0  0
    8.3684   -6.6280    0.0000 C   0  0  0  0  0  0  0  0  0  0  0  0
    3.7180   -8.1675    0.0000 O   0  0  0  0  0  0  0  0  0  0  0  0
    6.9009   -5.8904    0.0000 C   0  0  0  0  0  0  0  0  0  0  0  0
    6.3489   -5.2773    0.0000 O   0  0  0  0  0  0  0  0  0  0  0  0
    7.9559   -8.7714    0.0000 O   0  0  0  0  0  0  0  0  0  0  0  0
   10.4309   -7.3425    0.0000 O   0  0  0  0  0  0  0  0  0  0  0  0
  1  2  2  0  0  0  0
  2  3  1  0  0  0  0
  3  4  2  0  0  0  0
  4  5  1  0  0  0  0
  5  6  2  0  0  0  0
  6  1  1  0  0  0  0
  4  7  1  0  0  0  0
  7  8  1  0  0  0  0
  8  9  2  0  0  0  0
  9  5  1  0  0  0  0
  8 10  1  0  0  0  0
 10 11  2  0  0  0  0
 11 12  1  0  0  0  0
 12 13  2  0  0  0  0
 13 14  1  0  0  0  0
 14 15  2  0  0  0  0
 15 10  1  0  0  0  0
  2 16  1  0  0  0  0
  9 17  1  0  0  0  0
 17 18  2  0  0  0  0
 11 19  1  0  0  0  0
 13 20  1  0  0  0  0
M  END
>  <cdx:fragmentId>
5

$$$$
