99410.cdx
  Mrv1902 05222410202D          

 19 19  0  0  0  0            999 V2000
    6.8230   -9.1522    0.0000 C   0  0  0  0  0  0  0  0  0  0  0  0
    6.1085   -8.7397    0.0000 C   0  0  0  0  0  0  0  0  0  0  0  0
    5.3941   -9.1522    0.0000 C   0  0  0  0  0  0  0  0  0  0  0  0
    6.8230   -9.9772    0.0000 O   0  0  0  0  0  0  0  0  0  0  0  0
    6.1085   -7.9147    0.0000 O   0  0  0  0  0  0  0  0  0  0  0  0
    4.6796   -8.7397    0.0000 O   0  0  0  0  0  0  0  0  0  0  0  0
    7.5375   -8.7397    0.0000 C   0  0  0  0  0  0  0  0  0  0  0  0
    8.2520   -9.1522    0.0000 C   0  0  0  0  0  0  0  0  0  0  0  0
    8.9664   -8.7397    0.0000 C   0  0  0  0  0  0  0  0  0  0  0  0
    8.9664   -7.9147    0.0000 C   0  0  0  0  0  0  0  0  0  0  0  0
    8.2520   -7.5022    0.0000 C   0  0  0  0  0  0  0  0  0  0  0  0
    7.5375   -7.9147    0.0000 C   0  0  0  0  0  0  0  0  0  0  0  0
    9.6809   -9.1522    0.0000 O   0  0  0  0  0  0  0  0  0  0  0  0
   10.3954   -8.7397    0.0000 C   0  0  0  0  0  0  0  0  0  0  0  0
    9.6809   -7.5022    0.0000 O   0  0  0  0  0  0  0  0  0  0  0  0
    8.2520   -6.6772    0.0000 O   0  0  0  0  0  0  0  0  0  0  0  0
    7.5375   -6.2647    0.0000 C   0  0  0  0  0  0  0  0  0  0  0  0
    5.3941   -9.9772    0.0000 O   0  0  0  0  0  0  0  0  0  0  0  0
    4.6796  -10.3897    0.0000 C   0  0  0  0  0  0  0  0  0  0  0  0
  1  2  1  0  0  0  0
  2  3  1  0  0  0  0
  1  4  1  0  0  0  0
  2  5  1  0  0  0  0
  3  6  1  0  0  0  0
  7  8  1  0  0  0  0
  8  9  2  0  0  0  0
  9 10  1  0  0  0  0
 10 11  2  0  0  0  0
 11 12  1  0  0  0  0
  7 12  2  0  0  0  0
 13 14  1  0  0  0  0
  9 13  1  0  0  0  0
 10 15  1  0  0  0  0
  1  7  1  0  0  0  0
 11 16  1  0  0  0  0
 16 17  1  0  0  0  0
  3 18  1  0  0  0  0
 18 19  1  0  0  0  0
M  END
>  <cdx:fragmentId>
17

$$$$
