99414.cdx
  Mrv1902 05222410182D          

 31 35  0  0  0  0            999 V2000
    7.8389   -7.4805    0.0000 O   0  0  0  0  0  0  0  0  0  0  0  0
    7.0543   -7.7355    0.0000 C   0  0  0  0  0  0  0  0  0  0  0  0
    7.0543   -8.5605    0.0000 C   0  0  0  0  0  0  0  0  0  0  0  0
    7.8389   -8.8154    0.0000 C   0  0  0  0  0  0  0  0  0  0  0  0
    8.3238   -8.1480    0.0000 C   0  0  0  0  0  0  0  0  0  0  0  0
    6.3398   -7.3230    0.0000 C   0  0  0  0  0  0  0  0  0  0  0  0
    5.6253   -7.7355    0.0000 C   0  0  0  0  0  0  0  0  0  0  0  0
    5.6253   -8.5605    0.0000 C   0  0  0  0  0  0  0  0  0  0  0  0
    4.9109   -8.9730    0.0000 C   0  0  0  0  0  0  0  0  0  0  0  0
    4.1964   -8.5605    0.0000 C   0  0  0  0  0  0  0  0  0  0  0  0
    3.4819   -8.9730    0.0000 C   0  0  0  0  0  0  0  0  0  0  0  0
    3.4819   -9.7980    0.0000 C   0  0  0  0  0  0  0  0  0  0  0  0
    4.1964  -10.2105    0.0000 C   0  0  0  0  0  0  0  0  0  0  0  0
    4.9109   -9.7980    0.0000 C   0  0  0  0  0  0  0  0  0  0  0  0
    5.6253  -10.2105    0.0000 C   0  0  0  0  0  0  0  0  0  0  0  0
    6.3398   -9.7980    0.0000 C   0  0  0  0  0  0  0  0  0  0  0  0
    6.3398   -8.9730    0.0000 C   0  0  0  0  0  0  0  0  0  0  0  0
    2.7675  -10.2105    0.0000 O   0  0  0  0  0  0  0  0  0  0  0  0
    4.9109   -7.3230    0.0000 O   0  0  0  0  0  0  0  0  0  0  0  0
    4.1964   -7.7355    0.0000 C   0  0  0  0  0  0  0  0  0  0  0  0
    8.0939   -9.6000    0.0000 C   0  0  0  0  0  0  0  0  0  0  0  0
    8.9008   -9.7715    0.0000 O   0  0  0  0  0  0  0  0  0  0  0  0
    9.1488   -8.1480    0.0000 C   0  0  0  0  0  0  0  0  0  0  0  0
    9.5613   -7.4335    0.0000 C   0  0  0  0  0  0  0  0  0  0  0  0
   10.3863   -7.4335    0.0000 C   0  0  0  0  0  0  0  0  0  0  0  0
   10.7988   -8.1480    0.0000 C   0  0  0  0  0  0  0  0  0  0  0  0
   10.3863   -8.8624    0.0000 C   0  0  0  0  0  0  0  0  0  0  0  0
    9.5613   -8.8624    0.0000 C   0  0  0  0  0  0  0  0  0  0  0  0
   10.7988   -6.7190    0.0000 O   0  0  0  0  0  0  0  0  0  0  0  0
   11.6238   -6.7190    0.0000 C   0  0  0  0  0  0  0  0  0  0  0  0
   11.6238   -8.1480    0.0000 O   0  0  0  0  0  0  0  0  0  0  0  0
  1  2  1  0  0  0  0
  2  3  1  0  0  0  0
  3  4  1  0  0  0  0
  4  5  1  0  0  0  0
  1  5  1  0  0  0  0
  6  7  1  0  0  0  0
  7  8  2  0  0  0  0
  8  9  1  0  0  0  0
  9 10  1  0  0  0  0
 10 11  2  0  0  0  0
 11 12  1  0  0  0  0
 12 13  2  0  0  0  0
 13 14  1  0  0  0  0
  9 14  2  0  0  0  0
 14 15  1  0  0  0  0
 15 16  1  0  0  0  0
 16 17  1  0  0  0  0
  8 17  1  0  0  0  0
  6  2  2  0  0  0  0
 17  3  2  0  0  0  0
 12 18  1  0  0  0  0
 19 20  1  0  0  0  0
  7 19  1  0  0  0  0
 21 22  1  0  0  0  0
  4 21  1  0  0  0  0
 23 24  1  0  0  0  0
 24 25  2  0  0  0  0
 25 26  1  0  0  0  0
 26 27  2  0  0  0  0
 27 28  1  0  0  0  0
 23 28  2  0  0  0  0
 29 30  1  0  0  0  0
 25 29  1  0  0  0  0
 26 31  1  0  0  0  0
  5 23  1  0  0  0  0
M  END
>  <cdx:fragmentId>
15

$$$$
