99412.cdx
  Mrv1902 05222410192D          

 39 43  0  0  0  0            999 V2000
    7.6491   -5.5555    0.0000 C   0  0  2  0  0  0  0  0  0  0  0  0
    7.6491   -6.3805    0.0000 C   0  0  2  0  0  0  0  0  0  0  0  0
    6.9347   -6.7930    0.0000 C   0  0  0  0  0  0  0  0  0  0  0  0
    6.2202   -6.3805    0.0000 C   0  0  0  0  0  0  0  0  0  0  0  0
    6.2202   -5.5555    0.0000 C   0  0  0  0  0  0  0  0  0  0  0  0
    6.9347   -5.1430    0.0000 O   0  0  0  0  0  0  0  0  0  0  0  0
    5.5057   -5.1430    0.0000 C   0  0  0  0  0  0  0  0  0  0  0  0
    4.7913   -5.5555    0.0000 C   0  0  0  0  0  0  0  0  0  0  0  0
    4.7913   -6.3805    0.0000 C   0  0  0  0  0  0  0  0  0  0  0  0
    5.5057   -6.7930    0.0000 C   0  0  0  0  0  0  0  0  0  0  0  0
    4.0768   -5.1430    0.0000 O   0  0  0  0  0  0  0  0  0  0  0  0
    8.3636   -5.1430    0.0000 C   0  0  0  0  0  0  0  0  0  0  0  0
    8.3636   -4.3180    0.0000 C   0  0  0  0  0  0  0  0  0  0  0  0
    9.0781   -3.9055    0.0000 C   0  0  0  0  0  0  0  0  0  0  0  0
    9.7925   -4.3180    0.0000 C   0  0  0  0  0  0  0  0  0  0  0  0
    9.7925   -5.1430    0.0000 C   0  0  0  0  0  0  0  0  0  0  0  0
    9.0781   -5.5555    0.0000 C   0  0  0  0  0  0  0  0  0  0  0  0
   10.5070   -3.9055    0.0000 O   0  0  0  0  0  0  0  0  0  0  0  0
    8.3636   -6.7930    0.0000 O   0  0  0  0  0  0  0  0  0  0  0  0
    8.3695   -7.6347    0.0000 C   0  0  1  0  0  0  0  0  0  0  0  0
    9.0850   -8.0455    0.0000 C   0  0  2  0  0  0  0  0  0  0  0  0
    9.7985   -7.6312    0.0000 O   0  0  0  0  0  0  0  0  0  0  0  0
    9.0871   -8.8705    0.0000 C   0  0  1  0  0  0  0  0  0  0  0  0
    9.8026   -9.2812    0.0000 O   0  0  0  0  0  0  0  0  0  0  0  0
    8.3736   -9.2847    0.0000 C   0  0  2  0  0  0  0  0  0  0  0  0
    8.3757  -10.1097    0.0000 O   0  0  0  0  0  0  0  0  0  0  0  0
    7.6581   -8.8740    0.0000 C   0  0  2  0  0  0  0  0  0  0  0  0
    7.6561   -8.0490    0.0000 O   0  0  0  0  0  0  0  0  0  0  0  0
    6.9447   -9.2883    0.0000 C   0  0  0  0  0  0  0  0  0  0  0  0
    6.9467  -10.1133    0.0000 O   0  0  0  0  0  0  0  0  0  0  0  0
    6.2333  -10.5275    0.0000 C   0  0  2  0  0  0  0  0  0  0  0  0
    6.1491  -11.3482    0.0000 C   0  0  2  0  0  0  0  0  0  0  0  0
    6.7636  -11.8987    0.0000 O   0  0  0  0  0  0  0  0  0  0  0  0
    5.3425  -11.5218    0.0000 C   0  0  2  0  0  0  0  0  0  0  0  0
    5.4308  -12.3420    0.0000 O   0  0  0  0  0  0  0  0  0  0  0  0
    4.9283  -10.8083    0.0000 C   0  0  0  0  0  0  0  0  0  0  0  0
    5.4788  -10.1939    0.0000 O   0  0  0  0  0  0  0  0  0  0  0  0
    4.6763  -12.0083    0.0000 C   0  0  0  0  0  0  0  0  0  0  0  0
    4.7646  -12.8286    0.0000 O   0  0  0  0  0  0  0  0  0  0  0  0
  1  2  1  0  0  0  0
  2  3  1  0  0  0  0
  3  4  1  0  0  0  0
  4  5  1  0  0  0  0
  5  6  1  0  0  0  0
  1  6  1  0  0  0  0
  7  8  1  0  0  0  0
  8  9  2  0  0  0  0
  9 10  1  0  0  0  0
 10  4  2  0  0  0  0
  7  5  2  0  0  0  0
  8 11  1  0  0  0  0
 12 13  1  0  0  0  0
 13 14  2  0  0  0  0
 14 15  1  0  0  0  0
 15 16  2  0  0  0  0
 16 17  1  0  0  0  0
 12 17  2  0  0  0  0
 15 18  1  0  0  0  0
  1 12  1  6  0  0  0
  2 19  1  1  0  0  0
 20 21  1  0  0  0  0
 21 22  1  6  0  0  0
 21 23  1  0  0  0  0
 23 24  1  1  0  0  0
 23 25  1  0  0  0  0
 25 26  1  6  0  0  0
 25 27  1  0  0  0  0
 27 28  1  0  0  0  0
 27 29  1  1  0  0  0
 29 30  1  0  0  0  0
 20 28  1  0  0  0  0
 31 32  1  0  0  0  0
 32 33  1  6  0  0  0
 32 34  1  0  0  0  0
 34 35  1  6  0  0  0
 34 36  1  0  0  0  0
 36 37  1  0  0  0  0
 34 38  1  1  0  0  0
 38 39  1  0  0  0  0
 31 37  1  0  0  0  0
 31 30  1  6  0  0  0
 20 19  1  1  0  0  0
M  END
>  <cdx:fragmentId>
67

$$$$
