99427.cdx
  Mrv1902 05222410272D          

 26 29  0  0  0  0            999 V2000
    3.6762   -5.8575    0.0000 C   0  0  0  0  0  0  0  0  0  0  0  0
    3.6762   -6.6825    0.0000 O   0  0  0  0  0  0  0  0  0  0  0  0
    4.3906   -7.0950    0.0000 C   0  0  0  0  0  0  0  0  0  0  0  0
    5.1051   -6.6825    0.0000 C   0  0  0  0  0  0  0  0  0  0  0  0
    5.1051   -5.8575    0.0000 C   0  0  0  0  0  0  0  0  0  0  0  0
    4.3906   -5.4450    0.0000 C   0  0  0  0  0  0  0  0  0  0  0  0
    4.3906   -7.9200    0.0000 C   0  0  0  0  0  0  0  0  0  0  0  0
    5.1051   -8.3325    0.0000 C   0  0  0  0  0  0  0  0  0  0  0  0
    5.8196   -7.9200    0.0000 C   0  0  0  0  0  0  0  0  0  0  0  0
    5.8196   -7.0950    0.0000 C   0  0  0  0  0  0  0  0  0  0  0  0
    6.5341   -8.3325    0.0000 C   0  0  0  0  0  0  0  0  0  0  0  0
    7.2485   -7.9200    0.0000 C   0  0  0  0  0  0  0  0  0  0  0  0
    7.2485   -7.0950    0.0000 C   0  0  0  0  0  0  0  0  0  0  0  0
    6.5341   -6.6825    0.0000 O   0  0  0  0  0  0  0  0  0  0  0  0
    5.1051   -9.1575    0.0000 O   0  0  0  0  0  0  0  0  0  0  0  0
    6.5341   -9.1575    0.0000 O   0  0  0  0  0  0  0  0  0  0  0  0
    8.6775   -7.0950    0.0000 C   0  0  0  0  0  0  0  0  0  0  0  0
    7.9630   -6.6825    0.0000 C   0  0  0  0  0  0  0  0  0  0  0  0
    9.3919   -6.6825    0.0000 C   0  0  0  0  0  0  0  0  0  0  0  0
    9.3919   -5.8575    0.0000 C   0  0  0  0  0  0  0  0  0  0  0  0
    8.6775   -5.4450    0.0000 C   0  0  0  0  0  0  0  0  0  0  0  0
    7.9630   -5.8575    0.0000 C   0  0  0  0  0  0  0  0  0  0  0  0
   10.1064   -5.4450    0.0000 O   0  0  0  0  0  0  0  0  0  0  0  0
    4.3906   -9.5700    0.0000 C   0  0  0  0  0  0  0  0  0  0  0  0
    2.8793   -5.6440    0.0000 C   0  0  0  0  0  0  0  0  0  0  0  0
    3.4627   -5.0606    0.0000 C   0  0  0  0  0  0  0  0  0  0  0  0
  1  2  1  0  0  0  0
  2  3  1  0  0  0  0
  3  4  1  0  0  0  0
  4  5  1  0  0  0  0
  5  6  1  0  0  0  0
  6  1  1  0  0  0  0
  3  7  2  0  0  0  0
  7  8  1  0  0  0  0
  8  9  2  0  0  0  0
  9 10  1  0  0  0  0
 10  4  2  0  0  0  0
  9 11  1  0  0  0  0
 11 12  1  0  0  0  0
 12 13  1  0  0  0  0
 13 14  1  0  0  0  0
 14 10  1  0  0  0  0
  8 15  1  0  0  0  0
 16 11  2  0  0  0  0
 17 18  2  0  0  0  0
 18 13  1  0  0  0  0
 17 19  1  0  0  0  0
 19 20  2  0  0  0  0
 20 21  1  0  0  0  0
 21 22  2  0  0  0  0
 22 18  1  0  0  0  0
 20 23  1  0  0  0  0
 15 24  1  0  0  0  0
  1 25  1  0  0  0  0
  1 26  1  0  0  0  0
M  END
>  <cdx:fragmentId>
5

$$$$
