99429.cdx
  Mrv1902 05222410182D          

 15 15  0  0  0  0            999 V2000
    6.3712   -7.9475    0.0000 C   0  0  0  0  0  0  0  0  0  0  0  0
    6.3712   -8.7725    0.0000 C   0  0  0  0  0  0  0  0  0  0  0  0
    7.0856   -9.1850    0.0000 C   0  0  0  0  0  0  0  0  0  0  0  0
    7.8001   -8.7725    0.0000 C   0  0  0  0  0  0  0  0  0  0  0  0
    7.8001   -7.9475    0.0000 C   0  0  0  0  0  0  0  0  0  0  0  0
    7.0856   -7.5350    0.0000 C   0  0  0  0  0  0  0  0  0  0  0  0
    5.6567   -7.5350    0.0000 O   0  0  0  0  0  0  0  0  0  0  0  0
    7.0856  -10.0100    0.0000 O   0  0  0  0  0  0  0  0  0  0  0  0
    6.3712  -10.4225    0.0000 C   0  0  0  0  0  0  0  0  0  0  0  0
    8.5146   -7.5350    0.0000 O   0  0  0  0  0  0  0  0  0  0  0  0
    7.0856   -6.7100    0.0000 C   0  0  0  0  0  0  0  0  0  0  0  0
    6.3712   -6.2975    0.0000 C   0  0  0  0  0  0  0  0  0  0  0  0
    6.3712   -5.4725    0.0000 C   0  0  0  0  0  0  0  0  0  0  0  0
    5.6567   -5.0600    0.0000 C   0  0  0  0  0  0  0  0  0  0  0  0
    7.0856   -5.0600    0.0000 C   0  0  0  0  0  0  0  0  0  0  0  0
  1  2  2  0  0  0  0
  2  3  1  0  0  0  0
  3  4  2  0  0  0  0
  4  5  1  0  0  0  0
  5  6  2  0  0  0  0
  6  1  1  0  0  0  0
  1  7  1  0  0  0  0
  3  8  1  0  0  0  0
  8  9  1  0  0  0  0
  5 10  1  0  0  0  0
  6 11  1  0  0  0  0
 11 12  1  0  0  0  0
 12 13  2  0  0  0  0
 13 14  1  0  0  0  0
 13 15  1  0  0  0  0
M  END
>  <cdx:fragmentId>
5

$$$$
