99423.cdx
  Mrv1902 05222410272D          

 28 28  0  0  0  0            999 V2000
    2.4381  -10.8625    0.0000 O   0  0  0  0  0  0  0  0  0  0  0  0
    3.1526  -11.2750    0.0000 C   0  0  0  0  0  0  0  0  0  0  0  0
    3.8671  -10.8625    0.0000 C   0  0  0  0  0  0  0  0  0  0  0  0
    4.5816  -11.2750    0.0000 C   0  0  0  0  0  0  0  0  0  0  0  0
    5.2960  -10.8625    0.0000 C   0  0  0  0  0  0  0  0  0  0  0  0
    6.0105  -10.4500    0.0000 C   0  0  0  0  0  0  0  0  0  0  0  0
    6.7250  -10.0375    0.0000 C   0  0  0  0  0  0  0  0  0  0  0  0
    7.4394   -9.6250    0.0000 C   0  0  0  0  0  0  0  0  0  0  0  0
    8.1539   -9.2125    0.0000 C   0  0  0  0  0  0  0  0  0  0  0  0
    8.8684   -9.6250    0.0000 C   0  0  0  0  0  0  0  0  0  0  0  0
    9.5829   -9.2125    0.0000 C   0  0  2  0  0  0  0  0  0  0  0  0
   10.2973   -9.6250    0.0000 C   0  0  0  0  0  0  0  0  0  0  0  0
   11.0118   -9.2125    0.0000 C   0  0  0  0  0  0  0  0  0  0  0  0
   11.7263   -9.6250    0.0000 C   0  0  0  0  0  0  0  0  0  0  0  0
   12.4407   -9.2125    0.0000 C   0  0  0  0  0  0  0  0  0  0  0  0
   13.1552   -9.6250    0.0000 O   0  0  0  0  0  0  0  0  0  0  0  0
    9.5829   -8.3875    0.0000 O   0  0  0  0  0  0  0  0  0  0  0  0
   11.2446   -6.9494    0.0000 C   0  0  2  0  0  0  0  0  0  0  0  0
   10.8328   -6.2345    0.0000 C   0  0  2  0  0  0  0  0  0  0  0  0
   10.0078   -6.2336    0.0000 C   0  0  1  0  0  0  0  0  0  0  0  0
    9.5946   -6.9477    0.0000 C   0  0  2  0  0  0  0  0  0  0  0  0
   10.0063   -7.6626    0.0000 C   0  0  1  0  0  0  0  0  0  0  0  0
   10.8313   -7.6634    0.0000 O   0  0  0  0  0  0  0  0  0  0  0  0
   12.0696   -6.9503    0.0000 C   0  0  0  0  0  0  0  0  0  0  0  0
    9.5961   -5.5187    0.0000 O   0  0  0  0  0  0  0  0  0  0  0  0
   11.2461   -5.5205    0.0000 O   0  0  0  0  0  0  0  0  0  0  0  0
    8.7696   -6.9468    0.0000 O   0  0  0  0  0  0  0  0  0  0  0  0
   12.4828   -6.2362    0.0000 O   0  0  0  0  0  0  0  0  0  0  0  0
  1  2  1  0  0  0  0
  2  3  1  0  0  0  0
  3  4  1  0  0  0  0
  4  5  1  0  0  0  0
  5  6  3  0  0  0  0
  6  7  1  0  0  0  0
  7  8  3  0  0  0  0
  8  9  1  0  0  0  0
  9 10  2  0  0  0  0
 10 11  1  0  0  0  0
 11 12  1  0  0  0  0
 12 13  1  0  0  0  0
 13 14  1  0  0  0  0
 14 15  1  0  0  0  0
 15 16  1  0  0  0  0
 11 17  1  1  0  0  0
 18 19  1  0  0  0  0
 19 20  1  0  0  0  0
 20 21  1  0  0  0  0
 21 22  1  0  0  0  0
 22 23  1  0  0  0  0
 23 18  1  0  0  0  0
 18 24  1  1  0  0  0
 20 25  1  1  0  0  0
 19 26  1  6  0  0  0
 21 27  1  6  0  0  0
 24 28  1  0  0  0  0
 22 17  1  1  0  0  0
M  END
>  <cdx:fragmentId>
3

$$$$
