99424.cdx
  Mrv1902 05222410282D          

 38 39  0  0  0  0            999 V2000
    3.1526  -11.2750    0.0000 C   0  0  0  0  0  0  0  0  0  0  0  0
    3.8671  -10.8625    0.0000 C   0  0  0  0  0  0  0  0  0  0  0  0
    4.5816  -11.2750    0.0000 C   0  0  0  0  0  0  0  0  0  0  0  0
    5.2960  -10.8625    0.0000 C   0  0  0  0  0  0  0  0  0  0  0  0
    6.0105  -10.4500    0.0000 C   0  0  0  0  0  0  0  0  0  0  0  0
    6.7250  -10.0375    0.0000 C   0  0  0  0  0  0  0  0  0  0  0  0
    7.4394   -9.6250    0.0000 C   0  0  0  0  0  0  0  0  0  0  0  0
    8.1539   -9.2125    0.0000 C   0  0  0  0  0  0  0  0  0  0  0  0
    8.8684   -9.6250    0.0000 C   0  0  0  0  0  0  0  0  0  0  0  0
    9.5829   -9.2125    0.0000 C   0  0  2  0  0  0  0  0  0  0  0  0
   10.2973   -9.6250    0.0000 C   0  0  0  0  0  0  0  0  0  0  0  0
   11.0118   -9.2125    0.0000 C   0  0  0  0  0  0  0  0  0  0  0  0
   11.7263   -9.6250    0.0000 C   0  0  0  0  0  0  0  0  0  0  0  0
   12.4407   -9.2125    0.0000 C   0  0  0  0  0  0  0  0  0  0  0  0
   13.1552   -9.6250    0.0000 O   0  0  0  0  0  0  0  0  0  0  0  0
    9.5829   -8.3875    0.0000 O   0  0  0  0  0  0  0  0  0  0  0  0
   11.2446   -6.9494    0.0000 C   0  0  2  0  0  0  0  0  0  0  0  0
   10.8328   -6.2345    0.0000 C   0  0  2  0  0  0  0  0  0  0  0  0
   10.0078   -6.2336    0.0000 C   0  0  1  0  0  0  0  0  0  0  0  0
    9.5946   -6.9477    0.0000 C   0  0  2  0  0  0  0  0  0  0  0  0
   10.0063   -7.6626    0.0000 C   0  0  1  0  0  0  0  0  0  0  0  0
   10.8313   -7.6634    0.0000 O   0  0  0  0  0  0  0  0  0  0  0  0
   12.0696   -6.9503    0.0000 C   0  0  0  0  0  0  0  0  0  0  0  0
    9.5961   -5.5187    0.0000 O   0  0  0  0  0  0  0  0  0  0  0  0
   11.2461   -5.5205    0.0000 O   0  0  0  0  0  0  0  0  0  0  0  0
    8.7696   -6.9468    0.0000 O   0  0  0  0  0  0  0  0  0  0  0  0
   12.4828   -6.2362    0.0000 O   0  0  0  0  0  0  0  0  0  0  0  0
    8.3608   -4.7877    0.0000 C   0  0  2  0  0  0  0  0  0  0  0  0
    7.5357   -4.7879    0.0000 C   0  0  2  0  0  0  0  0  0  0  0  0
    7.1235   -5.5025    0.0000 C   0  0  1  0  0  0  0  0  0  0  0  0
    7.5362   -6.2169    0.0000 C   0  0  2  0  0  0  0  0  0  0  0  0
    8.3612   -6.2166    0.0000 C   0  0  1  0  0  0  0  0  0  0  0  0
    8.7735   -5.5020    0.0000 O   0  0  0  0  0  0  0  0  0  0  0  0
    8.7730   -4.0731    0.0000 C   0  0  0  0  0  0  0  0  0  0  0  0
    6.2985   -5.5027    0.0000 O   0  0  0  0  0  0  0  0  0  0  0  0
    7.1230   -4.0736    0.0000 O   0  0  0  0  0  0  0  0  0  0  0  0
    7.1239   -6.9315    0.0000 O   0  0  0  0  0  0  0  0  0  0  0  0
    8.3603   -3.3587    0.0000 O   0  0  0  0  0  0  0  0  0  0  0  0
  1  2  1  0  0  0  0
  2  3  2  0  0  0  0
  3  4  1  0  0  0  0
  4  5  3  0  0  0  0
  5  6  1  0  0  0  0
  6  7  3  0  0  0  0
  7  8  1  0  0  0  0
  8  9  2  0  0  0  0
  9 10  1  0  0  0  0
 10 11  1  0  0  0  0
 11 12  1  0  0  0  0
 12 13  1  0  0  0  0
 13 14  1  0  0  0  0
 14 15  1  0  0  0  0
 10 16  1  1  0  0  0
 17 18  1  0  0  0  0
 18 19  1  0  0  0  0
 19 20  1  0  0  0  0
 20 21  1  0  0  0  0
 21 22  1  0  0  0  0
 22 17  1  0  0  0  0
 17 23  1  1  0  0  0
 19 24  1  1  0  0  0
 18 25  1  6  0  0  0
 20 26  1  6  0  0  0
 23 27  1  0  0  0  0
 21 16  1  1  0  0  0
 28 29  1  0  0  0  0
 29 30  1  0  0  0  0
 30 31  1  0  0  0  0
 31 32  1  0  0  0  0
 32 33  1  0  0  0  0
 33 28  1  0  0  0  0
 28 34  1  1  0  0  0
 30 35  1  1  0  0  0
 29 36  1  6  0  0  0
 31 37  1  6  0  0  0
 34 38  1  0  0  0  0
 32 26  1  1  0  0  0
M  END
>  <cdx:fragmentId>
3

$$$$
