99428.cdx
  Mrv1902 05222410182D          

 26 28  0  0  0  0            999 V2000
    5.2685   -7.2016    0.0000 C   0  0  0  0  0  0  0  0  0  0  0  0
    5.9815   -7.6167    0.0000 C   0  0  0  0  0  0  0  0  0  0  0  0
    6.6975   -7.2068    0.0000 C   0  0  0  0  0  0  0  0  0  0  0  0
    6.7005   -6.3818    0.0000 C   0  0  0  0  0  0  0  0  0  0  0  0
    5.9875   -5.9667    0.0000 C   0  0  0  0  0  0  0  0  0  0  0  0
    5.2715   -6.3766    0.0000 C   0  0  0  0  0  0  0  0  0  0  0  0
    7.4164   -5.9719    0.0000 O   0  0  0  0  0  0  0  0  0  0  0  0
    7.4194   -5.1469    0.0000 C   0  0  0  0  0  0  0  0  0  0  0  0
    6.7065   -4.7318    0.0000 C   0  0  0  0  0  0  0  0  0  0  0  0
    5.9905   -5.1417    0.0000 C   0  0  0  0  0  0  0  0  0  0  0  0
    5.2625   -8.8516    0.0000 C   0  0  0  0  0  0  0  0  0  0  0  0
    5.9785   -8.4417    0.0000 O   0  0  0  0  0  0  0  0  0  0  0  0
    4.5586   -5.9615    0.0000 O   0  0  0  0  0  0  0  0  0  0  0  0
    7.4074   -8.4469    0.0000 O   0  0  0  0  0  0  0  0  0  0  0  0
   11.7032   -5.9875    0.0000 O   0  0  0  0  0  0  0  0  0  0  0  0
   10.2683   -7.6323    0.0000 C   0  0  0  0  0  0  0  0  0  0  0  0
   10.9843   -7.2224    0.0000 C   0  0  0  0  0  0  0  0  0  0  0  0
   10.9873   -6.3974    0.0000 C   0  0  0  0  0  0  0  0  0  0  0  0
   10.2743   -5.9823    0.0000 C   0  0  0  0  0  0  0  0  0  0  0  0
    8.8394   -7.6271    0.0000 C   0  0  0  0  0  0  0  0  0  0  0  0
    9.5553   -7.2172    0.0000 C   0  0  0  0  0  0  0  0  0  0  0  0
    9.5583   -6.3922    0.0000 C   0  0  0  0  0  0  0  0  0  0  0  0
    7.4104   -7.6219    0.0000 C   0  0  0  0  0  0  0  0  0  0  0  0
    8.1264   -7.2120    0.0000 C   0  0  0  0  0  0  0  0  0  0  0  0
    7.6359   -4.3508    0.0000 C   0  0  0  0  0  0  0  0  0  0  0  0
    8.2171   -4.9363    0.0000 C   0  0  0  0  0  0  0  0  0  0  0  0
  1  2  2  0  0  0  0
  2  3  1  0  0  0  0
  3  4  2  0  0  0  0
  4  5  1  0  0  0  0
  5  6  2  0  0  0  0
  6  1  1  0  0  0  0
  4  7  1  0  0  0  0
  7  8  1  0  0  0  0
  8  9  1  0  0  0  0
  9 10  1  0  0  0  0
 10  5  1  0  0  0  0
 11 12  1  0  0  0  0
 12  2  1  0  0  0  0
  6 13  1  0  0  0  0
 23 14  2  0  0  0  0
 18 15  1  0  0  0  0
 23  3  1  0  0  0  0
 16 21  1  0  0  0  0
 17 16  2  0  0  0  0
 18 17  1  0  0  0  0
 19 18  2  0  0  0  0
 22 19  1  0  0  0  0
 20 24  2  0  0  0  0
 21 20  1  0  0  0  0
 22 21  2  0  0  0  0
 24 23  1  0  0  0  0
  8 25  1  0  0  0  0
  8 26  1  0  0  0  0
M  END
>  <cdx:fragmentId>
165

$$$$
