99422.cdx
  Mrv1902 05222410262D          

 39 40  0  0  0  0            999 V2000
    7.2801  -10.8649    0.0000 O   0  0  0  0  0  0  0  0  0  0  0  0
    7.9945  -11.2774    0.0000 C   0  0  0  0  0  0  0  0  0  0  0  0
    8.7090  -10.8649    0.0000 C   0  0  0  0  0  0  0  0  0  0  0  0
    9.4235  -11.2774    0.0000 C   0  0  0  0  0  0  0  0  0  0  0  0
   10.1380  -10.8649    0.0000 C   0  0  0  0  0  0  0  0  0  0  0  0
   10.8524  -10.4524    0.0000 C   0  0  0  0  0  0  0  0  0  0  0  0
   11.5669  -10.0399    0.0000 C   0  0  0  0  0  0  0  0  0  0  0  0
   12.2814   -9.6274    0.0000 C   0  0  0  0  0  0  0  0  0  0  0  0
   12.9958   -9.2149    0.0000 C   0  0  0  0  0  0  0  0  0  0  0  0
   13.7103   -9.6274    0.0000 C   0  0  0  0  0  0  0  0  0  0  0  0
   14.4248   -9.2149    0.0000 C   0  0  2  0  0  0  0  0  0  0  0  0
   15.1393   -9.6274    0.0000 C   0  0  0  0  0  0  0  0  0  0  0  0
   15.8537   -9.2149    0.0000 C   0  0  0  0  0  0  0  0  0  0  0  0
   16.5682   -9.6274    0.0000 C   0  0  0  0  0  0  0  0  0  0  0  0
   17.2827   -9.2149    0.0000 C   0  0  0  0  0  0  0  0  0  0  0  0
   17.9971   -9.6274    0.0000 O   0  0  0  0  0  0  0  0  0  0  0  0
   14.4248   -8.3899    0.0000 O   0  0  0  0  0  0  0  0  0  0  0  0
   16.0865   -6.9518    0.0000 C   0  0  2  0  0  0  0  0  0  0  0  0
   15.6748   -6.2369    0.0000 C   0  0  2  0  0  0  0  0  0  0  0  0
   14.8498   -6.2360    0.0000 C   0  0  1  0  0  0  0  0  0  0  0  0
   14.4365   -6.9500    0.0000 C   0  0  2  0  0  0  0  0  0  0  0  0
   14.8483   -7.6649    0.0000 C   0  0  1  0  0  0  0  0  0  0  0  0
   15.6733   -7.6658    0.0000 O   0  0  0  0  0  0  0  0  0  0  0  0
   16.9115   -6.9526    0.0000 C   0  0  0  0  0  0  0  0  0  0  0  0
   14.4380   -5.5211    0.0000 O   0  0  0  0  0  0  0  0  0  0  0  0
   16.0880   -5.5228    0.0000 O   0  0  0  0  0  0  0  0  0  0  0  0
   13.6115   -6.9492    0.0000 O   0  0  0  0  0  0  0  0  0  0  0  0
   17.3248   -6.2386    0.0000 O   0  0  0  0  0  0  0  0  0  0  0  0
    5.1356  -11.2815    0.0000 C   0  0  2  0  0  0  0  0  0  0  0  0
    5.1389  -12.1065    0.0000 C   0  0  2  0  0  0  0  0  0  0  0  0
    5.8550  -12.5161    0.0000 C   0  0  1  0  0  0  0  0  0  0  0  0
    6.5678  -12.1008    0.0000 C   0  0  2  0  0  0  0  0  0  0  0  0
    6.5645  -11.2758    0.0000 C   0  0  1  0  0  0  0  0  0  0  0  0
    5.8484  -10.8661    0.0000 O   0  0  0  0  0  0  0  0  0  0  0  0
    4.4195  -10.8718    0.0000 C   0  0  0  0  0  0  0  0  0  0  0  0
    5.8583  -13.3411    0.0000 O   0  0  0  0  0  0  0  0  0  0  0  0
    4.4261  -12.5218    0.0000 O   0  0  0  0  0  0  0  0  0  0  0  0
    7.2839  -12.5104    0.0000 O   0  0  0  0  0  0  0  0  0  0  0  0
    3.7067  -11.2871    0.0000 O   0  0  0  0  0  0  0  0  0  0  0  0
  1  2  1  0  0  0  0
  2  3  1  0  0  0  0
  3  4  2  0  0  0  0
  4  5  1  0  0  0  0
  5  6  3  0  0  0  0
  6  7  1  0  0  0  0
  7  8  3  0  0  0  0
  8  9  1  0  0  0  0
  9 10  2  0  0  0  0
 10 11  1  0  0  0  0
 11 12  1  0  0  0  0
 12 13  1  0  0  0  0
 13 14  1  0  0  0  0
 14 15  1  0  0  0  0
 15 16  1  0  0  0  0
 11 17  1  1  0  0  0
 18 19  1  0  0  0  0
 19 20  1  0  0  0  0
 20 21  1  0  0  0  0
 21 22  1  0  0  0  0
 22 23  1  0  0  0  0
 23 18  1  0  0  0  0
 18 24  1  1  0  0  0
 20 25  1  1  0  0  0
 19 26  1  6  0  0  0
 21 27  1  6  0  0  0
 24 28  1  0  0  0  0
 22 17  1  1  0  0  0
 29 30  1  0  0  0  0
 30 31  1  0  0  0  0
 31 32  1  0  0  0  0
 32 33  1  0  0  0  0
 33 34  1  0  0  0  0
 34 29  1  0  0  0  0
 29 35  1  1  0  0  0
 31 36  1  1  0  0  0
 30 37  1  6  0  0  0
 32 38  1  6  0  0  0
 35 39  1  0  0  0  0
 33  1  1  1  0  0  0
M  END
>  <cdx:fragmentId>
3

$$$$
