99426.cdx
  Mrv1902 05222410272D          

 38 40  0  0  0  0            999 V2000
    5.5726   -8.4563    0.0000 C   0  0  0  0  0  0  0  0  0  0  0  0
    6.2871   -8.0437    0.0000 C   0  0  0  0  0  0  0  0  0  0  0  0
    7.0016   -8.4563    0.0000 C   0  0  0  0  0  0  0  0  0  0  0  0
    7.7160   -8.0437    0.0000 C   0  0  0  0  0  0  0  0  0  0  0  0
    8.4305   -7.6313    0.0000 C   0  0  0  0  0  0  0  0  0  0  0  0
    9.1450   -7.2188    0.0000 C   0  0  0  0  0  0  0  0  0  0  0  0
    9.8594   -6.8062    0.0000 C   0  0  0  0  0  0  0  0  0  0  0  0
   10.5739   -6.3937    0.0000 C   0  0  0  0  0  0  0  0  0  0  0  0
   11.2884   -6.8062    0.0000 C   0  0  0  0  0  0  0  0  0  0  0  0
   12.0029   -6.3937    0.0000 C   0  0  2  0  0  0  0  0  0  0  0  0
    4.8639   -8.0543    0.0000 O   0  0  0  0  0  0  0  0  0  0  0  0
    2.7024   -8.4510    0.0000 C   0  0  2  0  0  0  0  0  0  0  0  0
    2.6947   -9.2760    0.0000 C   0  0  2  0  0  0  0  0  0  0  0  0
    3.4053   -9.6951    0.0000 C   0  0  1  0  0  0  0  0  0  0  0  0
    4.1236   -9.2893    0.0000 C   0  0  2  0  0  0  0  0  0  0  0  0
    4.1313   -8.4643    0.0000 C   0  0  1  0  0  0  0  0  0  0  0  0
    3.4207   -8.0452    0.0000 O   0  0  0  0  0  0  0  0  0  0  0  0
    1.9918   -8.0319    0.0000 C   0  0  0  0  0  0  0  0  0  0  0  0
    3.3977  -10.5201    0.0000 O   0  0  0  0  0  0  0  0  0  0  0  0
    1.9765   -9.6819    0.0000 O   0  0  0  0  0  0  0  0  0  0  0  0
    4.8342   -9.7084    0.0000 O   0  0  0  0  0  0  0  0  0  0  0  0
    1.2735   -8.4378    0.0000 O   0  0  0  0  0  0  0  0  0  0  0  0
    4.0916  -11.7766    0.0000 C   0  0  2  0  0  0  0  0  0  0  0  0
    4.8028  -12.1948    0.0000 C   0  0  2  0  0  0  0  0  0  0  0  0
    5.5205  -11.7880    0.0000 C   0  0  1  0  0  0  0  0  0  0  0  0
    5.5271  -10.9630    0.0000 C   0  0  2  0  0  0  0  0  0  0  0  0
    4.8159  -10.5449    0.0000 C   0  0  1  0  0  0  0  0  0  0  0  0
    4.0982  -10.9517    0.0000 O   0  0  0  0  0  0  0  0  0  0  0  0
    3.3739  -12.1834    0.0000 C   0  0  0  0  0  0  0  0  0  0  0  0
    6.2317  -12.2062    0.0000 O   0  0  0  0  0  0  0  0  0  0  0  0
    4.7962  -13.0198    0.0000 O   0  0  0  0  0  0  0  0  0  0  0  0
    6.2448  -10.5562    0.0000 O   0  0  0  0  0  0  0  0  0  0  0  0
    3.3673  -13.0084    0.0000 O   0  0  0  0  0  0  0  0  0  0  0  0
   12.7173   -6.8062    0.0000 C   0  0  0  0  0  0  0  0  0  0  0  0
   13.4318   -6.3937    0.0000 C   0  0  0  0  0  0  0  0  0  0  0  0
   13.4318   -5.5687    0.0000 C   0  0  0  0  0  0  0  0  0  0  0  0
   12.7173   -5.1562    0.0000 C   0  0  0  0  0  0  0  0  0  0  0  0
   12.0029   -5.5687    0.0000 O   0  0  0  0  0  0  0  0  0  0  0  0
  1  2  1  0  0  0  0
  2  3  1  0  0  0  0
  3  4  1  0  0  0  0
  4  5  3  0  0  0  0
  5  6  1  0  0  0  0
  6  7  3  0  0  0  0
  7  8  1  0  0  0  0
  8  9  2  0  0  0  0
 10  9  1  1  0  0  0
 12 13  1  0  0  0  0
 13 14  1  0  0  0  0
 14 15  1  0  0  0  0
 15 16  1  0  0  0  0
 16 17  1  0  0  0  0
 17 12  1  0  0  0  0
 12 18  1  1  0  0  0
 14 19  1  1  0  0  0
 13 20  1  6  0  0  0
 15 21  1  6  0  0  0
 18 22  1  0  0  0  0
 16 11  1  1  0  0  0
 23 24  1  0  0  0  0
 24 25  1  0  0  0  0
 25 26  1  0  0  0  0
 26 27  1  0  0  0  0
 27 28  1  0  0  0  0
 28 23  1  0  0  0  0
 23 29  1  1  0  0  0
 25 30  1  1  0  0  0
 24 31  1  6  0  0  0
 26 32  1  6  0  0  0
 29 33  1  0  0  0  0
 27 21  1  1  0  0  0
 10 34  1  0  0  0  0
 34 35  1  0  0  0  0
 35 36  1  0  0  0  0
 36 37  1  0  0  0  0
 37 38  1  0  0  0  0
 38 10  1  0  0  0  0
  1 11  1  0  0  0  0
M  END
>  <cdx:fragmentId>
581

$$$$
