99420.cdx
  Mrv1902 05222410262D          

 28 28  0  0  0  0            999 V2000
    2.0669  -10.8075    0.0000 O   0  0  0  0  0  0  0  0  0  0  0  0
    2.7814  -11.2200    0.0000 C   0  0  0  0  0  0  0  0  0  0  0  0
    3.4958  -10.8075    0.0000 C   0  0  0  0  0  0  0  0  0  0  0  0
    4.2103  -11.2200    0.0000 C   0  0  0  0  0  0  0  0  0  0  0  0
    4.9248  -10.8075    0.0000 C   0  0  0  0  0  0  0  0  0  0  0  0
    5.6393  -10.3950    0.0000 C   0  0  0  0  0  0  0  0  0  0  0  0
    6.3537   -9.9825    0.0000 C   0  0  0  0  0  0  0  0  0  0  0  0
    7.0682   -9.5700    0.0000 C   0  0  0  0  0  0  0  0  0  0  0  0
    7.7827   -9.1575    0.0000 C   0  0  0  0  0  0  0  0  0  0  0  0
    8.4971   -9.5700    0.0000 C   0  0  0  0  0  0  0  0  0  0  0  0
    9.2116   -9.1575    0.0000 C   0  0  2  0  0  0  0  0  0  0  0  0
    9.9261   -9.5700    0.0000 C   0  0  0  0  0  0  0  0  0  0  0  0
   10.6406   -9.1575    0.0000 C   0  0  0  0  0  0  0  0  0  0  0  0
   11.3550   -9.5700    0.0000 C   0  0  0  0  0  0  0  0  0  0  0  0
   12.0695   -9.1575    0.0000 C   0  0  0  0  0  0  0  0  0  0  0  0
   12.7840   -9.5700    0.0000 O   0  0  0  0  0  0  0  0  0  0  0  0
    9.2116   -8.3325    0.0000 O   0  0  0  0  0  0  0  0  0  0  0  0
   10.8817   -6.9041    0.0000 C   0  0  2  0  0  0  0  0  0  0  0  0
   10.4741   -6.1868    0.0000 C   0  0  2  0  0  0  0  0  0  0  0  0
    9.6491   -6.1811    0.0000 C   0  0  1  0  0  0  0  0  0  0  0  0
    9.2317   -6.8928    0.0000 C   0  0  2  0  0  0  0  0  0  0  0  0
    9.6393   -7.6101    0.0000 C   0  0  1  0  0  0  0  0  0  0  0  0
   10.4643   -7.6157    0.0000 O   0  0  0  0  0  0  0  0  0  0  0  0
   11.7066   -6.9098    0.0000 C   0  0  0  0  0  0  0  0  0  0  0  0
    9.2415   -5.4639    0.0000 O   0  0  0  0  0  0  0  0  0  0  0  0
   10.8915   -5.4752    0.0000 O   0  0  0  0  0  0  0  0  0  0  0  0
    8.4067   -6.8871    0.0000 O   0  0  0  0  0  0  0  0  0  0  0  0
   12.1240   -6.1981    0.0000 O   0  0  0  0  0  0  0  0  0  0  0  0
  1  2  1  0  0  0  0
  2  3  1  0  0  0  0
  3  4  2  0  0  0  0
  4  5  1  0  0  0  0
  5  6  3  0  0  0  0
  6  7  1  0  0  0  0
  7  8  3  0  0  0  0
  8  9  1  0  0  0  0
  9 10  2  0  0  0  0
 10 11  1  0  0  0  0
 11 12  1  0  0  0  0
 12 13  1  0  0  0  0
 13 14  1  0  0  0  0
 14 15  1  0  0  0  0
 15 16  1  0  0  0  0
 11 17  1  1  0  0  0
 18 19  1  0  0  0  0
 19 20  1  0  0  0  0
 20 21  1  0  0  0  0
 21 22  1  0  0  0  0
 22 23  1  0  0  0  0
 23 18  1  0  0  0  0
 18 24  1  1  0  0  0
 20 25  1  1  0  0  0
 19 26  1  6  0  0  0
 21 27  1  6  0  0  0
 24 28  1  0  0  0  0
 22 17  1  1  0  0  0
M  END
>  <cdx:fragmentId>
3

$$$$
