99425.cdx
  Mrv1902 05222410282D          

 38 39  0  0  0  0            999 V2000
    1.7226   -8.4975    0.0000 C   0  0  0  0  0  0  0  0  0  0  0  0
    2.4371   -8.0850    0.0000 C   0  0  0  0  0  0  0  0  0  0  0  0
    3.1516   -8.4975    0.0000 C   0  0  0  0  0  0  0  0  0  0  0  0
    3.8660   -8.0850    0.0000 C   0  0  0  0  0  0  0  0  0  0  0  0
    4.5805   -7.6725    0.0000 C   0  0  0  0  0  0  0  0  0  0  0  0
    5.2950   -7.2600    0.0000 C   0  0  0  0  0  0  0  0  0  0  0  0
    6.0094   -6.8475    0.0000 C   0  0  0  0  0  0  0  0  0  0  0  0
    6.7239   -6.4350    0.0000 C   0  0  0  0  0  0  0  0  0  0  0  0
    7.4384   -6.8475    0.0000 C   0  0  1  0  0  0  0  0  0  0  0  0
    8.1529   -6.4350    0.0000 C   0  0  0  0  0  0  0  0  0  0  0  0
    8.8673   -6.8475    0.0000 C   0  0  0  0  0  0  0  0  0  0  0  0
    9.5818   -6.4350    0.0000 C   0  0  0  0  0  0  0  0  0  0  0  0
   10.2963   -6.8475    0.0000 C   0  0  0  0  0  0  0  0  0  0  0  0
   11.0107   -6.4350    0.0000 C   0  0  0  0  0  0  0  0  0  0  0  0
   11.7252   -6.8475    0.0000 O   0  0  0  0  0  0  0  0  0  0  0  0
    7.4503   -7.6791    0.0000 O   0  0  0  0  0  0  0  0  0  0  0  0
    5.7847   -9.1127    0.0000 C   0  0  2  0  0  0  0  0  0  0  0  0
    6.1945   -9.8287    0.0000 C   0  0  2  0  0  0  0  0  0  0  0  0
    7.0195   -9.8318    0.0000 C   0  0  1  0  0  0  0  0  0  0  0  0
    7.4347   -9.1189    0.0000 C   0  0  2  0  0  0  0  0  0  0  0  0
    7.0249   -8.4029    0.0000 C   0  0  1  0  0  0  0  0  0  0  0  0
    6.1999   -8.3998    0.0000 O   0  0  0  0  0  0  0  0  0  0  0  0
    4.9597   -9.1096    0.0000 C   0  0  0  0  0  0  0  0  0  0  0  0
    7.4293  -10.5478    0.0000 O   0  0  0  0  0  0  0  0  0  0  0  0
    5.7793  -10.5416    0.0000 O   0  0  0  0  0  0  0  0  0  0  0  0
    8.2597   -9.1220    0.0000 O   0  0  0  0  0  0  0  0  0  0  0  0
    4.5445   -9.8225    0.0000 O   0  0  0  0  0  0  0  0  0  0  0  0
    8.6626  -11.2823    0.0000 C   0  0  2  0  0  0  0  0  0  0  0  0
    9.4876  -11.2843    0.0000 C   0  0  2  0  0  0  0  0  0  0  0  0
    9.9018  -10.5708    0.0000 C   0  0  1  0  0  0  0  0  0  0  0  0
    9.4911   -9.8553    0.0000 C   0  0  2  0  0  0  0  0  0  0  0  0
    8.6661   -9.8533    0.0000 C   0  0  1  0  0  0  0  0  0  0  0  0
    8.2518  -10.5668    0.0000 O   0  0  0  0  0  0  0  0  0  0  0  0
    8.2484  -11.9957    0.0000 C   0  0  0  0  0  0  0  0  0  0  0  0
   10.7268  -10.5728    0.0000 O   0  0  0  0  0  0  0  0  0  0  0  0
    9.8983  -11.9998    0.0000 O   0  0  0  0  0  0  0  0  0  0  0  0
    9.9053   -9.1419    0.0000 O   0  0  0  0  0  0  0  0  0  0  0  0
    8.6591  -12.7112    0.0000 O   0  0  0  0  0  0  0  0  0  0  0  0
  1  2  1  0  0  0  0
  2  3  2  0  0  0  0
  3  4  1  0  0  0  0
  4  5  3  0  0  0  0
  5  6  1  0  0  0  0
  6  7  3  0  0  0  0
  7  8  1  0  0  0  0
  8  9  1  0  0  0  0
  9 10  1  0  0  0  0
 10 11  2  0  0  0  0
 11 12  1  0  0  0  0
 12 13  1  0  0  0  0
 13 14  1  0  0  0  0
 14 15  1  0  0  0  0
 17 18  1  0  0  0  0
 18 19  1  0  0  0  0
 19 20  1  0  0  0  0
 20 21  1  0  0  0  0
 21 22  1  0  0  0  0
 22 17  1  0  0  0  0
 17 23  1  1  0  0  0
 19 24  1  1  0  0  0
 18 25  1  6  0  0  0
 20 26  1  6  0  0  0
 23 27  1  0  0  0  0
 21 16  1  1  0  0  0
 28 29  1  0  0  0  0
 29 30  1  0  0  0  0
 30 31  1  0  0  0  0
 31 32  1  0  0  0  0
 32 33  1  0  0  0  0
 33 28  1  0  0  0  0
 28 34  1  1  0  0  0
 30 35  1  1  0  0  0
 29 36  1  6  0  0  0
 31 37  1  6  0  0  0
 34 38  1  0  0  0  0
 32 26  1  1  0  0  0
  9 16  1  1  0  0  0
M  END
>  <cdx:fragmentId>
483

$$$$
