99421.cdx
  Mrv1902 05222410262D          

 39 40  0  0  0  0            999 V2000
    2.0669  -10.8075    0.0000 O   0  0  0  0  0  0  0  0  0  0  0  0
    2.7814  -11.2200    0.0000 C   0  0  0  0  0  0  0  0  0  0  0  0
    3.4958  -10.8075    0.0000 C   0  0  0  0  0  0  0  0  0  0  0  0
    4.2103  -11.2200    0.0000 C   0  0  0  0  0  0  0  0  0  0  0  0
    4.9248  -10.8075    0.0000 C   0  0  0  0  0  0  0  0  0  0  0  0
    5.6393  -10.3950    0.0000 C   0  0  0  0  0  0  0  0  0  0  0  0
    6.3537   -9.9825    0.0000 C   0  0  0  0  0  0  0  0  0  0  0  0
    7.0682   -9.5700    0.0000 C   0  0  0  0  0  0  0  0  0  0  0  0
    7.7827   -9.1575    0.0000 C   0  0  0  0  0  0  0  0  0  0  0  0
    8.4971   -9.5700    0.0000 C   0  0  0  0  0  0  0  0  0  0  0  0
    9.2116   -9.1575    0.0000 C   0  0  2  0  0  0  0  0  0  0  0  0
    9.9261   -9.5700    0.0000 C   0  0  0  0  0  0  0  0  0  0  0  0
   10.6406   -9.1575    0.0000 C   0  0  0  0  0  0  0  0  0  0  0  0
   11.3550   -9.5700    0.0000 C   0  0  0  0  0  0  0  0  0  0  0  0
   12.0695   -9.1575    0.0000 C   0  0  0  0  0  0  0  0  0  0  0  0
   12.7840   -9.5700    0.0000 O   0  0  0  0  0  0  0  0  0  0  0  0
    9.2116   -8.3325    0.0000 O   0  0  0  0  0  0  0  0  0  0  0  0
   10.8733   -6.8944    0.0000 C   0  0  2  0  0  0  0  0  0  0  0  0
   10.4616   -6.1795    0.0000 C   0  0  2  0  0  0  0  0  0  0  0  0
    9.6366   -6.1786    0.0000 C   0  0  1  0  0  0  0  0  0  0  0  0
    9.2233   -6.8927    0.0000 C   0  0  2  0  0  0  0  0  0  0  0  0
    9.6351   -7.6076    0.0000 C   0  0  1  0  0  0  0  0  0  0  0  0
   10.4601   -7.6084    0.0000 O   0  0  0  0  0  0  0  0  0  0  0  0
   11.6983   -6.8953    0.0000 C   0  0  0  0  0  0  0  0  0  0  0  0
    9.2248   -5.4637    0.0000 O   0  0  0  0  0  0  0  0  0  0  0  0
   10.8748   -5.4655    0.0000 O   0  0  0  0  0  0  0  0  0  0  0  0
    8.3983   -6.8918    0.0000 O   0  0  0  0  0  0  0  0  0  0  0  0
   12.1116   -6.1812    0.0000 O   0  0  0  0  0  0  0  0  0  0  0  0
    6.9531   -5.2354    0.0000 C   0  0  2  0  0  0  0  0  0  0  0  0
    6.2393   -5.6489    0.0000 C   0  0  2  0  0  0  0  0  0  0  0  0
    6.2404   -6.4739    0.0000 C   0  0  1  0  0  0  0  0  0  0  0  0
    6.9555   -6.8854    0.0000 C   0  0  2  0  0  0  0  0  0  0  0  0
    7.6694   -6.4719    0.0000 C   0  0  1  0  0  0  0  0  0  0  0  0
    7.6682   -5.6469    0.0000 O   0  0  0  0  0  0  0  0  0  0  0  0
    6.9520   -4.4104    0.0000 C   0  0  0  0  0  0  0  0  0  0  0  0
    5.5265   -6.8874    0.0000 O   0  0  0  0  0  0  0  0  0  0  0  0
    5.5242   -5.2374    0.0000 O   0  0  0  0  0  0  0  0  0  0  0  0
    6.9566   -7.7104    0.0000 O   0  0  0  0  0  0  0  0  0  0  0  0
    6.2369   -3.9989    0.0000 O   0  0  0  0  0  0  0  0  0  0  0  0
  1  2  1  0  0  0  0
  2  3  1  0  0  0  0
  3  4  2  0  0  0  0
  4  5  1  0  0  0  0
  5  6  3  0  0  0  0
  6  7  1  0  0  0  0
  7  8  3  0  0  0  0
  8  9  1  0  0  0  0
  9 10  2  0  0  0  0
 10 11  1  0  0  0  0
 11 12  1  0  0  0  0
 12 13  1  0  0  0  0
 13 14  1  0  0  0  0
 14 15  1  0  0  0  0
 15 16  1  0  0  0  0
 11 17  1  1  0  0  0
 18 19  1  0  0  0  0
 19 20  1  0  0  0  0
 20 21  1  0  0  0  0
 21 22  1  0  0  0  0
 22 23  1  0  0  0  0
 23 18  1  0  0  0  0
 18 24  1  1  0  0  0
 20 25  1  1  0  0  0
 19 26  1  6  0  0  0
 21 27  1  6  0  0  0
 24 28  1  0  0  0  0
 22 17  1  1  0  0  0
 29 30  1  0  0  0  0
 30 31  1  0  0  0  0
 31 32  1  0  0  0  0
 32 33  1  0  0  0  0
 33 34  1  0  0  0  0
 34 29  1  0  0  0  0
 29 35  1  1  0  0  0
 31 36  1  1  0  0  0
 30 37  1  6  0  0  0
 32 38  1  6  0  0  0
 35 39  1  0  0  0  0
 33 27  1  1  0  0  0
M  END
>  <cdx:fragmentId>
3

$$$$
