99437.cdx
  Mrv1902 05222410272D          

 19 18  0  0  0  0            999 V2000
    3.3319   -8.2500    0.0000 C   0  0  0  0  0  0  0  0  0  0  0  0
    4.0464   -7.8375    0.0000 C   0  0  0  0  0  0  0  0  0  0  0  0
    4.7608   -8.2500    0.0000 C   0  0  0  0  0  0  0  0  0  0  0  0
    5.4753   -7.8375    0.0000 C   0  0  0  0  0  0  0  0  0  0  0  0
    6.1898   -8.2500    0.0000 C   0  0  0  0  0  0  0  0  0  0  0  0
    6.9043   -7.8375    0.0000 C   0  0  0  0  0  0  0  0  0  0  0  0
    7.6187   -8.2500    0.0000 C   0  0  0  0  0  0  0  0  0  0  0  0
    8.3332   -7.8375    0.0000 C   0  0  0  0  0  0  0  0  0  0  0  0
    9.0477   -8.2500    0.0000 C   0  0  0  0  0  0  0  0  0  0  0  0
    9.7621   -7.8375    0.0000 C   0  0  0  0  0  0  0  0  0  0  0  0
   10.4766   -8.2500    0.0000 C   0  0  0  0  0  0  0  0  0  0  0  0
   11.1911   -7.8375    0.0000 C   0  0  0  0  0  0  0  0  0  0  0  0
    4.0464   -7.0125    0.0000 O   0  0  0  0  0  0  0  0  0  0  0  0
    6.1898   -9.0750    0.0000 O   0  0  0  0  0  0  0  0  0  0  0  0
    6.9043   -7.0125    0.0000 C   0  0  0  0  0  0  0  0  0  0  0  0
    9.7621   -7.0125    0.0000 C   0  0  0  0  0  0  0  0  0  0  0  0
    9.0477   -6.6000    0.0000 O   0  0  0  0  0  0  0  0  0  0  0  0
   10.4766   -6.6000    0.0000 O   0  0  0  0  0  0  0  0  0  0  0  0
   10.4766   -9.0750    0.0000 C   0  0  0  0  0  0  0  0  0  0  0  0
  1  2  1  0  0  0  0
  2  3  1  0  0  0  0
  3  4  1  0  0  0  0
  4  5  1  0  0  0  0
  5  6  1  0  0  0  0
  6  7  1  0  0  0  0
  7  8  1  0  0  0  0
  8  9  1  0  0  0  0
  9 10  1  0  0  0  0
 10 11  1  0  0  0  0
 11 12  2  0  0  0  0
  2 13  2  0  0  0  0
  5 14  2  0  0  0  0
  6 15  1  0  0  0  0
 10 16  1  0  0  0  0
 16 17  2  0  0  0  0
 16 18  1  0  0  0  0
 11 19  1  0  0  0  0
M  END
>  <cdx:fragmentId>
3

$$$$
