99436.cdx
  Mrv1902 05222410262D          

 17 18  0  0  0  0            999 V2000
    4.6735   -6.2831    0.0000 C   0  0  0  0  0  0  0  0  0  0  0  0
    7.6266   -7.9059    0.0000 H   0  0  0  0  0  0  0  0  0  0  0  0
    5.3825   -5.8669    0.0000 C   0  0  0  0  0  0  0  0  0  0  0  0
    6.8055   -5.0317    0.0000 O   0  0  0  0  0  0  0  0  0  0  0  0
    6.8293   -8.3316    0.0000 O   0  0  0  0  0  0  0  0  0  0  0  0
    8.3116   -6.0034    0.0000 C   0  0  0  0  0  0  0  0  0  0  0  0
    8.8014   -6.6673    0.0000 C   0  0  0  0  0  0  0  0  0  0  0  0
    8.3213   -7.3382    0.0000 C   0  0  0  0  0  0  0  0  0  0  0  0
    6.8114   -5.8566    0.0000 C   0  0  0  0  0  0  0  0  0  0  0  0
    6.1000   -6.2743    0.0000 C   0  0  2  0  0  0  0  0  0  0  0  0
    6.1059   -7.0993    0.0000 N   0  0  0  0  0  0  0  0  0  0  0  0
    7.5289   -6.2640    0.0000 N   0  0  0  0  0  0  0  0  0  0  0  0
    6.8233   -7.5066    0.0000 C   0  0  0  0  0  0  0  0  0  0  0  0
    7.5348   -7.0889    0.0000 C   0  0  1  0  0  0  0  0  0  0  0  0
    3.9561   -5.8758    0.0000 C   0  0  0  0  0  0  0  0  0  0  0  0
    4.6795   -7.1081    0.0000 C   0  0  0  0  0  0  0  0  0  0  0  0
    6.0940   -5.4493    0.0000 H   0  0  0  0  0  0  0  0  0  0  0  0
  3  1  1  0  0  0  0
 14  2  1  1  0  0  0
 10  3  1  0  0  0  0
  9  4  2  0  0  0  0
 13  5  2  0  0  0  0
 14  8  1  0  0  0  0
 12  6  1  0  0  0  0
  7  6  1  0  0  0  0
  8  7  1  0  0  0  0
 12  9  1  0  0  0  0
 10  9  1  0  0  0  0
 11 10  1  0  0  0  0
 13 11  1  0  0  0  0
 14 12  1  0  0  0  0
 14 13  1  0  0  0  0
  1 15  1  0  0  0  0
  1 16  1  0  0  0  0
 10 17  1  1  0  0  0
M  END
>  <cdx:fragmentId>
20378

$$$$
