99435.cdx
  Mrv1902 05222410262D          

 24 26  0  0  0  0            999 V2000
    3.9099   -7.6863    0.0000 C   0  0  0  0  0  0  0  0  0  0  0  0
    3.9099   -8.5113    0.0000 C   0  0  0  0  0  0  0  0  0  0  0  0
    4.6244   -8.9238    0.0000 C   0  0  1  0  0  0  0  0  0  0  0  0
    5.3389   -8.5113    0.0000 C   0  0  1  0  0  0  0  0  0  0  0  0
    5.3389   -7.6863    0.0000 C   0  0  1  0  0  0  0  0  0  0  0  0
    4.6244   -7.2738    0.0000 C   0  0  2  0  0  0  0  0  0  0  0  0
    6.1235   -8.7662    0.0000 C   0  0  0  0  0  0  0  0  0  0  0  0
    6.6084   -8.0987    0.0000 N   0  0  0  0  0  0  0  0  0  0  0  0
    6.1235   -7.4313    0.0000 C   0  0  0  0  0  0  0  0  0  0  0  0
    6.3784   -6.6467    0.0000 O   0  0  0  0  0  0  0  0  0  0  0  0
    6.3784   -9.5508    0.0000 O   0  0  0  0  0  0  0  0  0  0  0  0
    7.4334   -8.0987    0.0000 C   0  0  0  0  0  0  0  0  0  0  0  0
    7.8459   -8.8132    0.0000 C   0  0  0  0  0  0  0  0  0  0  0  0
    8.6709   -8.8132    0.0000 O   0  0  0  0  0  0  0  0  0  0  0  0
    9.0834   -9.5277    0.0000 C   0  0  0  0  0  0  0  0  0  0  0  0
    9.9084   -9.5277    0.0000 C   0  0  0  0  0  0  0  0  0  0  0  0
    8.6709  -10.2422    0.0000 O   0  0  0  0  0  0  0  0  0  0  0  0
   10.3209   -8.8132    0.0000 C   0  0  0  0  0  0  0  0  0  0  0  0
   10.3209  -10.2422    0.0000 C   0  0  0  0  0  0  0  0  0  0  0  0
    9.9084  -10.9566    0.0000 C   0  0  0  0  0  0  0  0  0  0  0  0
    4.3175   -8.1125    0.0000 O   0  0  0  0  0  0  0  0  0  0  0  0
    5.3350   -6.9025    0.0000 C   0  0  0  0  0  0  0  0  0  0  0  0
    5.3389   -9.3362    0.0000 C   0  0  0  0  0  0  0  0  0  0  0  0
    4.6205   -6.4900    0.0000 O   0  0  0  0  0  0  0  0  0  0  0  0
  1  2  1  0  0  0  0
  2  3  1  0  0  0  0
  3  4  1  0  0  0  0
  4  5  1  0  0  0  0
  5  6  1  0  0  0  0
  6  1  1  0  0  0  0
  4  7  1  0  0  0  0
  7  8  1  0  0  0  0
  8  9  1  0  0  0  0
  9  5  1  0  0  0  0
  9 10  2  0  0  0  0
  7 11  2  0  0  0  0
  8 12  1  0  0  0  0
 12 13  1  0  0  0  0
 13 14  1  0  0  0  0
 14 15  1  0  0  0  0
 15 16  1  0  0  0  0
 15 17  2  0  0  0  0
 16 18  1  0  0  0  0
 16 19  2  0  0  0  0
 19 20  1  0  0  0  0
  3 21  1  1  0  0  0
  6 21  1  1  0  0  0
  5 22  1  6  0  0  0
  4 23  1  6  0  0  0
 22 24  1  0  0  0  0
M  END
>  <cdx:fragmentId>
5

$$$$
