99434.cdx
  Mrv1902 05222410262D          

 11 12  0  0  0  0            999 V2000
    6.5070   -7.3800    0.0000 O   0  0  0  0  0  0  0  0  0  0  0  0
    8.2764  -10.4733    0.0000 O   0  0  0  0  0  0  0  0  0  0  0  0
    6.5193   -9.8549    0.0000 C   0  0  0  0  0  0  0  0  0  0  0  0
    5.8028   -9.4460    0.0000 C   0  0  0  0  0  0  0  0  0  0  0  0
    5.7987   -8.6210    0.0000 C   0  0  0  0  0  0  0  0  0  0  0  0
    6.5111   -8.2049    0.0000 C   0  0  0  0  0  0  0  0  0  0  0  0
    8.0110   -8.3551    0.0000 C   0  0  0  0  0  0  0  0  0  0  0  0
    7.2276   -8.6139    0.0000 C   0  0  0  0  0  0  0  0  0  0  0  0
    7.2317   -9.4389    0.0000 C   0  0  0  0  0  0  0  0  0  0  0  0
    8.0176   -9.6899    0.0000 C   0  0  0  0  0  0  0  0  0  0  0  0
    8.4992   -9.0201    0.0000 O   0  0  0  0  0  0  0  0  0  0  0  0
  6  1  1  0  0  0  0
 10  2  2  0  0  0  0
  6  8  2  0  0  0  0
  3  9  2  0  0  0  0
  4  3  1  0  0  0  0
  5  4  2  0  0  0  0
  6  5  1  0  0  0  0
 11  7  1  0  0  0  0
  8  7  1  0  0  0  0
  9  8  1  0  0  0  0
 10  9  1  0  0  0  0
 11 10  1  0  0  0  0
M  END
>  <cdx:fragmentId>
5

$$$$
