99439.cdx
  Mrv1902 05222410202D          

 29 33  0  0  0  0            999 V2000
    8.4135   -8.1420    0.0000 H   0  0  0  0  0  0  0  0  0  0  0  0
    6.7220  -11.0256    0.0000 H   0  0  0  0  0  0  0  0  0  0  0  0
    5.9895  -12.2568    0.0000 H   0  0  0  0  0  0  0  0  0  0  0  0
    9.8790   -8.1585    0.0000 C   0  0  0  0  0  0  0  0  0  0  0  0
   10.4528   -8.7513    0.0000 C   0  0  0  0  0  0  0  0  0  0  0  0
    5.6849  -12.5561    0.0000 C   0  0  0  0  0  0  0  0  0  0  0  0
    4.8599  -12.5489    0.0000 C   0  0  0  0  0  0  0  0  0  0  0  0
    6.0040   -9.7818    0.0000 C   0  0  0  0  0  0  0  0  0  0  0  0
    7.3150   -9.5975    0.0000 C   0  0  0  0  0  0  0  0  0  0  0  0
    8.2034  -10.3247    0.0000 C   0  0  0  0  0  0  0  0  0  0  0  0
    7.9947   -8.8528    0.0000 C   0  0  2  0  0  0  0  0  0  0  0  0
    7.1726   -8.7840    0.0000 C   0  0  0  0  0  0  0  0  0  0  0  0
    6.6062   -9.3838    0.0000 C   0  0  0  0  0  0  0  0  0  0  0  0
    6.7220  -10.2006    0.0000 C   0  0  1  0  0  0  0  0  0  0  0  0
    6.0040  -10.6068    0.0000 C   0  0  1  0  0  0  0  0  0  0  0  0
    5.2931  -10.1881    0.0000 C   0  0  0  0  0  0  0  0  0  0  0  0
    4.5751  -10.5943    0.0000 C   0  0  0  0  0  0  0  0  0  0  0  0
    4.5678  -11.4193    0.0000 C   0  0  1  0  0  0  0  0  0  0  0  0
    5.2787  -11.8381    0.0000 C   0  0  0  0  0  0  0  0  0  0  0  0
    5.9967  -11.4318    0.0000 C   0  0  1  0  0  0  0  0  0  0  0  0
    6.7076  -11.8506    0.0000 C   0  0  0  0  0  0  0  0  0  0  0  0
    7.4256  -11.4443    0.0000 C   0  0  0  0  0  0  0  0  0  0  0  0
    7.4328  -10.6194    0.0000 C   0  0  1  0  0  0  0  0  0  0  0  0
    9.0273  -10.1312    0.0000 C   0  0  0  0  0  0  0  0  0  0  0  0
    8.4535   -9.5385    0.0000 C   0  0  2  0  0  0  0  0  0  0  0  0
    8.8399   -8.8096    0.0000 O   0  0  0  0  0  0  0  0  0  0  0  0
    9.6525   -8.9518    0.0000 C   0  0  0  0  0  0  0  0  0  0  0  0
    9.7684   -9.7687    0.0000 O   0  0  0  0  0  0  0  0  0  0  0  0
    3.8498  -11.8255    0.0000 O   0  0  0  0  0  0  0  0  0  0  0  0
 11  1  1  1  0  0  0
 14  2  1  1  0  0  0
 20  3  1  1  0  0  0
 27  4  1  0  0  0  0
 27  5  1  0  0  0  0
 19  6  1  0  0  0  0
 19  7  1  0  0  0  0
 15  8  1  6  0  0  0
 10 25  1  0  0  0  0
 11 25  1  0  0  0  0
 20 15  1  0  0  0  0
 23 14  1  0  0  0  0
 11  9  1  0  0  0  0
 23  9  1  6  0  0  0
 23 10  1  0  0  0  0
 12 11  1  0  0  0  0
 13 12  1  0  0  0  0
 14 13  1  0  0  0  0
 15 14  1  0  0  0  0
 16 15  1  0  0  0  0
 17 16  1  0  0  0  0
 18 17  1  0  0  0  0
 19 18  1  0  0  0  0
 20 19  1  0  0  0  0
 21 20  1  0  0  0  0
 22 21  1  0  0  0  0
 23 22  1  0  0  0  0
 28 24  1  0  0  0  0
 25 24  1  0  0  0  0
 25 26  1  1  0  0  0
 27 26  1  0  0  0  0
 28 27  1  0  0  0  0
 18 29  1  1  0  0  0
M  END
>  <cdx:fragmentId>
57

$$$$
