99432.cdx
  Mrv1902 05222410272D          

 19 19  0  0  0  0            999 V2000
    6.4776   -7.1740    0.0000 C   0  0  0  0  0  0  0  0  0  0  0  0
    6.7309   -7.9591    0.0000 C   0  0  2  0  0  0  0  0  0  0  0  0
    7.5559   -7.9609    0.0000 C   0  0  0  0  0  0  0  0  0  0  0  0
    7.8125   -7.1768    0.0000 C   0  0  0  0  0  0  0  0  0  0  0  0
    7.1461   -6.6905    0.0000 C   0  0  0  0  0  0  0  0  0  0  0  0
    8.5269   -6.7643    0.0000 C   0  0  0  0  0  0  0  0  0  0  0  0
    7.1478   -5.8655    0.0000 O   0  0  0  0  0  0  0  0  0  0  0  0
    5.7631   -6.7615    0.0000 C   0  0  0  0  0  0  0  0  0  0  0  0
    9.2414   -7.1768    0.0000 C   0  0  0  0  0  0  0  0  0  0  0  0
    8.5269   -5.9393    0.0000 O   0  0  0  0  0  0  0  0  0  0  0  0
    5.0487   -7.1740    0.0000 C   0  0  0  0  0  0  0  0  0  0  0  0
    4.3342   -6.7615    0.0000 C   0  0  0  0  0  0  0  0  0  0  0  0
    3.6197   -7.1740    0.0000 C   0  0  0  0  0  0  0  0  0  0  0  0
    4.3342   -5.9365    0.0000 C   0  0  0  0  0  0  0  0  0  0  0  0
    7.9684   -8.6754    0.0000 O   0  0  0  0  0  0  0  0  0  0  0  0
    6.3184   -8.6736    0.0000 H   0  0  0  0  0  0  0  0  0  0  0  0
    5.9105   -7.8720    0.0000 O   0  0  0  0  0  0  0  0  0  0  0  0
    9.9559   -6.7643    0.0000 C   0  0  0  0  0  0  0  0  0  0  0  0
    9.2414   -8.0018    0.0000 C   0  0  0  0  0  0  0  0  0  0  0  0
  1  2  1  0  0  0  0
  2  3  1  0  0  0  0
  3  4  2  0  0  0  0
  4  5  1  0  0  0  0
  5  1  1  0  0  0  0
  4  6  1  0  0  0  0
  5  7  2  0  0  0  0
  1  8  1  0  0  0  0
  6  9  1  0  0  0  0
  6 10  2  0  0  0  0
  8 11  1  0  0  0  0
 11 12  2  0  0  0  0
 12 13  1  0  0  0  0
 12 14  1  0  0  0  0
  3 15  1  0  0  0  0
  2 16  1  1  0  0  0
  2 17  1  0  0  0  0
  9 18  1  0  0  0  0
  9 19  1  0  0  0  0
M  END
>  <cdx:fragmentId>
193688

$$$$
