99430.cdx
  Mrv1902 05222410282D          

 29 30  0  0  0  0            999 V2000
    5.0099   -8.8550    0.0000 C   0  0  0  0  0  0  0  0  0  0  0  0
    5.0099   -9.6800    0.0000 C   0  0  0  0  0  0  0  0  0  0  0  0
    5.7244  -10.0925    0.0000 C   0  0  0  0  0  0  0  0  0  0  0  0
    6.4389   -9.6800    0.0000 C   0  0  0  0  0  0  0  0  0  0  0  0
    6.4389   -8.8550    0.0000 C   0  0  0  0  0  0  0  0  0  0  0  0
    5.7244   -8.4425    0.0000 C   0  0  0  0  0  0  0  0  0  0  0  0
    5.7244  -10.9175    0.0000 O   0  0  0  0  0  0  0  0  0  0  0  0
    7.1533  -10.9175    0.0000 O   0  0  0  0  0  0  0  0  0  0  0  0
    7.1533  -10.0925    0.0000 C   0  0  0  0  0  0  0  0  0  0  0  0
    7.8678   -9.6800    0.0000 C   0  0  0  0  0  0  0  0  0  0  0  0
    7.1533   -8.4425    0.0000 O   0  0  0  0  0  0  0  0  0  0  0  0
    8.5823  -10.0925    0.0000 C   0  0  0  0  0  0  0  0  0  0  0  0
    9.2968   -9.6800    0.0000 C   0  0  0  0  0  0  0  0  0  0  0  0
    9.2968   -8.8550    0.0000 C   0  0  0  0  0  0  0  0  0  0  0  0
   10.0112  -10.0925    0.0000 C   0  0  0  0  0  0  0  0  0  0  0  0
   10.7257   -9.6800    0.0000 C   0  0  0  0  0  0  0  0  0  0  0  0
   10.7257   -8.8550    0.0000 C   0  0  0  0  0  0  0  0  0  0  0  0
   10.0112   -8.4425    0.0000 C   0  0  0  0  0  0  0  0  0  0  0  0
    4.2955   -8.4425    0.0000 O   0  0  0  0  0  0  0  0  0  0  0  0
    5.0099  -11.3300    0.0000 C   0  0  0  0  0  0  0  0  0  0  0  0
   11.4402   -8.4425    0.0000 O   0  0  0  0  0  0  0  0  0  0  0  0
    5.7244   -7.6175    0.0000 C   0  0  0  0  0  0  0  0  0  0  0  0
    5.0099   -7.2050    0.0000 C   0  0  0  0  0  0  0  0  0  0  0  0
    5.0099   -6.3800    0.0000 C   0  0  0  0  0  0  0  0  0  0  0  0
    4.2955   -7.6175    0.0000 O   0  0  0  0  0  0  0  0  0  0  0  0
    4.2955   -5.9675    0.0000 C   0  0  0  0  0  0  0  0  0  0  0  0
    5.7244   -5.9675    0.0000 C   0  0  0  0  0  0  0  0  0  0  0  0
    5.0099   -5.5550    0.0000 O   0  0  0  0  0  0  0  0  0  0  0  0
    5.7244   -5.1425    0.0000 C   0  0  0  0  0  0  0  0  0  0  0  0
  1  2  2  0  0  0  0
  2  3  1  0  0  0  0
  3  4  2  0  0  0  0
  4  5  1  0  0  0  0
  5  6  2  0  0  0  0
  6  1  1  0  0  0  0
  3  7  1  0  0  0  0
  8  9  2  0  0  0  0
  9  4  1  0  0  0  0
  9 10  1  0  0  0  0
 11  5  1  0  0  0  0
 10 12  2  0  0  0  0
 12 13  1  0  0  0  0
 13 14  2  0  0  0  0
 13 15  1  0  0  0  0
 15 16  2  0  0  0  0
 16 17  1  0  0  0  0
 17 18  2  0  0  0  0
 18 14  1  0  0  0  0
  1 19  1  0  0  0  0
  7 20  1  0  0  0  0
 17 21  1  0  0  0  0
  6 22  1  0  0  0  0
 22 23  1  0  0  0  0
 23 24  1  0  0  0  0
 23 25  1  0  0  0  0
 24 26  1  0  0  0  0
 24 27  1  0  0  0  0
 24 28  1  0  0  0  0
 28 29  1  0  0  0  0
M  END
>  <cdx:fragmentId>
5

$$$$
