99441.cdx
  Mrv1902 05222410242D          

 17 18  0  0  0  0            999 V2000
    5.5187   -8.3737    0.0000 C   0  0  0  0  0  0  0  0  0  0  0  0
    5.5187   -9.1987    0.0000 C   0  0  0  0  0  0  0  0  0  0  0  0
    6.2331   -9.6112    0.0000 C   0  0  0  0  0  0  0  0  0  0  0  0
    6.9476   -9.1987    0.0000 C   0  0  0  0  0  0  0  0  0  0  0  0
    6.9476   -8.3737    0.0000 C   0  0  0  0  0  0  0  0  0  0  0  0
    6.2331   -7.9612    0.0000 C   0  0  0  0  0  0  0  0  0  0  0  0
    4.8042   -9.6112    0.0000 O   0  0  0  0  0  0  0  0  0  0  0  0
    6.2331  -10.4363    0.0000 O   0  0  0  0  0  0  0  0  0  0  0  0
    5.5187  -10.8488    0.0000 C   0  0  0  0  0  0  0  0  0  0  0  0
    7.6621   -7.9612    0.0000 C   0  0  2  0  0  0  0  0  0  0  0  0
    8.4158   -8.2968    0.0000 C   0  0  2  0  0  0  0  0  0  0  0  0
    8.9678   -7.6837    0.0000 O   0  0  0  0  0  0  0  0  0  0  0  0
    8.5553   -6.9692    0.0000 C   0  0  0  0  0  0  0  0  0  0  0  0
    7.7483   -7.1408    0.0000 O   0  0  0  0  0  0  0  0  0  0  0  0
    8.5873   -9.1038    0.0000 C   0  0  0  0  0  0  0  0  0  0  0  0
    8.5553   -6.1442    0.0000 C   0  0  0  0  0  0  0  0  0  0  0  0
    9.2698   -6.5567    0.0000 C   0  0  0  0  0  0  0  0  0  0  0  0
  1  2  2  0  0  0  0
  2  3  1  0  0  0  0
  3  4  2  0  0  0  0
  4  5  1  0  0  0  0
  5  6  2  0  0  0  0
  6  1  1  0  0  0  0
  2  7  1  0  0  0  0
  3  8  1  0  0  0  0
  8  9  1  0  0  0  0
 10  5  1  1  0  0  0
 10 11  1  0  0  0  0
 11 12  1  0  0  0  0
 12 13  1  0  0  0  0
 13 14  1  0  0  0  0
 14 10  1  0  0  0  0
 11 15  1  6  0  0  0
 13 16  1  0  0  0  0
 13 17  1  0  0  0  0
M  END
>  <cdx:fragmentId>
5

$$$$
