99447.cdx
  Mrv1902 05222410252D          

 50 54  0  0  0  0            999 V2000
    8.3110  -11.6065    0.0000 C   0  0  0  0  0  0  0  0  0  0  0  0
    9.1172  -11.4317    0.0000 O   0  0  0  0  0  0  0  0  0  0  0  0
    7.7891  -10.9675    0.0000 O   0  0  0  0  0  0  0  0  0  0  0  0
    9.3719  -13.0542    0.0000 C   0  0  0  0  0  0  0  0  0  0  0  0
    9.7874  -13.7670    0.0000 C   0  0  0  0  0  0  0  0  0  0  0  0
   10.6124  -13.7636    0.0000 C   0  0  0  0  0  0  0  0  0  0  0  0
   11.0219  -13.0474    0.0000 C   0  0  0  0  0  0  0  0  0  0  0  0
   10.6065  -12.3347    0.0000 C   0  0  0  0  0  0  0  0  0  0  0  0
    9.7815  -12.3381    0.0000 C   0  0  0  0  0  0  0  0  0  0  0  0
   11.8469  -13.0440    0.0000 O   0  0  0  0  0  0  0  0  0  0  0  0
   11.0278  -14.4763    0.0000 O   0  0  0  0  0  0  0  0  0  0  0  0
    5.8298   -8.5313    0.0000 C   0  0  0  0  0  0  0  0  0  0  0  0
    5.1170   -8.9468    0.0000 C   0  0  1  0  0  0  0  0  0  0  0  0
    4.4008   -8.5372    0.0000 C   0  0  0  0  0  0  0  0  0  0  0  0
    6.5459   -8.9409    0.0000 O   0  0  0  0  0  0  0  0  0  0  0  0
    5.8264   -7.7063    0.0000 O   0  0  0  0  0  0  0  0  0  0  0  0
    4.3974   -7.7122    0.0000 C   0  0  0  0  0  0  0  0  0  0  0  0
    5.1102   -7.2968    0.0000 C   0  0  0  0  0  0  0  0  0  0  0  0
    5.1068   -6.4718    0.0000 C   0  0  0  0  0  0  0  0  0  0  0  0
    4.3906   -6.0622    0.0000 C   0  0  0  0  0  0  0  0  0  0  0  0
    3.6779   -6.4777    0.0000 C   0  0  0  0  0  0  0  0  0  0  0  0
    3.6813   -7.3027    0.0000 C   0  0  0  0  0  0  0  0  0  0  0  0
    4.3872   -5.2372    0.0000 O   0  0  0  0  0  0  0  0  0  0  0  0
    9.1884   -9.2923    0.0000 O   0  0  0  0  0  0  0  0  0  0  0  0
    9.4178  -10.7027    0.0000 O   0  0  0  0  0  0  0  0  0  0  0  0
    8.8959  -10.0637    0.0000 C   0  0  0  0  0  0  0  0  0  0  0  0
    8.7297   -6.4714    0.0000 O   0  0  0  0  0  0  0  0  0  0  0  0
    7.3304   -8.1467    0.0000 C   0  0  0  0  0  0  0  0  0  0  0  0
    7.6229   -7.3753    0.0000 C   0  0  0  0  0  0  0  0  0  0  0  0
    8.4372   -7.2429    0.0000 C   0  0  0  0  0  0  0  0  0  0  0  0
    8.9590   -7.8819    0.0000 C   0  0  0  0  0  0  0  0  0  0  0  0
    8.6666   -8.6533    0.0000 C   0  0  0  0  0  0  0  0  0  0  0  0
    7.8523   -8.7857    0.0000 C   0  0  0  0  0  0  0  0  0  0  0  0
    7.5598   -9.5571    0.0000 C   0  0  0  0  0  0  0  0  0  0  0  0
    8.0816  -10.1961    0.0000 C   0  0  1  0  0  0  0  0  0  0  0  0
    6.5698  -14.7158    0.0000 O   0  0  0  0  0  0  0  0  0  0  0  0
    7.2791  -13.4754    0.0000 C   0  0  0  0  0  0  0  0  0  0  0  0
    6.5664  -13.8908    0.0000 C   0  0  0  0  0  0  0  0  0  0  0  0
    5.8502  -13.4813    0.0000 C   0  0  0  0  0  0  0  0  0  0  0  0
    5.8468  -12.6563    0.0000 C   0  0  0  0  0  0  0  0  0  0  0  0
    6.5595  -12.2408    0.0000 C   0  0  0  0  0  0  0  0  0  0  0  0
    7.2757  -12.6504    0.0000 C   0  0  0  0  0  0  0  0  0  0  0  0
    8.0593  -12.3922    0.0000 C   0  0  1  0  0  0  0  0  0  0  0  0
    8.5470  -13.0576    0.0000 C   0  0  2  0  0  0  0  0  0  0  0  0
    8.0648  -13.7271    0.0000 O   0  0  0  0  0  0  0  0  0  0  0  0
    6.5493   -9.7658    0.0000 O   0  0  0  0  0  0  0  0  0  0  0  0
    6.5561  -11.4158    0.0000 C   0  0  0  0  0  0  0  0  0  0  0  0
    5.8400  -11.0063    0.0000 C   0  0  0  0  0  0  0  0  0  0  0  0
    5.8366  -10.1813    0.0000 C   0  0  0  0  0  0  0  0  0  0  0  0
    5.1204   -9.7717    0.0000 O   0  0  0  0  0  0  0  0  0  0  0  0
 13 50  1  6  0  0  0
 50 49  1  0  0  0  0
 47 41  1  0  0  0  0
 43  1  1  6  0  0  0
 35 26  1  0  0  0  0
 26 24  1  0  0  0  0
 26 25  2  0  0  0  0
 34 33  1  0  0  0  0
 30 27  1  0  0  0  0
 33 28  2  0  0  0  0
 29 28  1  0  0  0  0
 30 29  2  0  0  0  0
 31 30  1  0  0  0  0
 32 31  2  0  0  0  0
 33 32  1  0  0  0  0
 35 34  1  0  0  0  0
 44  4  1  1  0  0  0
 38 36  1  0  0  0  0
 45 37  1  0  0  0  0
 42 37  2  0  0  0  0
 38 37  1  0  0  0  0
 39 38  2  0  0  0  0
 40 39  1  0  0  0  0
 41 40  2  0  0  0  0
 42 41  1  0  0  0  0
 43 42  1  0  0  0  0
 44 43  1  0  0  0  0
 45 44  1  0  0  0  0
 49 46  2  0  0  0  0
 48 47  2  0  0  0  0
 49 48  1  0  0  0  0
  1  2  2  0  0  0  0
 35  3  1  6  0  0  0
  1  3  1  0  0  0  0
  4  5  1  0  0  0  0
  5  6  2  0  0  0  0
  6  7  1  0  0  0  0
  7  8  2  0  0  0  0
  8  9  1  0  0  0  0
  4  9  2  0  0  0  0
  7 10  1  0  0  0  0
  6 11  1  0  0  0  0
 12 13  1  0  0  0  0
 13 14  1  0  0  0  0
 12 15  2  0  0  0  0
 12 16  1  0  0  0  0
 17 18  1  0  0  0  0
 18 19  2  0  0  0  0
 19 20  1  0  0  0  0
 20 21  2  0  0  0  0
 21 22  1  0  0  0  0
 17 22  2  0  0  0  0
 20 23  1  0  0  0  0
 14 17  1  0  0  0  0
M  END
>  <cdx:fragmentId>
106635

$$$$
