99445.cdx
  Mrv1902 05222410252D          

 18 19  0  0  0  0            999 V2000
    5.0237   -7.3975    0.0000 C   0  0  0  0  0  0  0  0  0  0  0  0
    5.0237   -8.2225    0.0000 C   0  0  0  0  0  0  0  0  0  0  0  0
    5.7381   -8.6350    0.0000 C   0  0  2  0  0  0  0  0  0  0  0  0
    6.4526   -8.2225    0.0000 C   0  0  1  0  0  0  0  0  0  0  0  0
    6.4526   -7.3975    0.0000 C   0  0  2  0  0  0  0  0  0  0  0  0
    5.7381   -6.9850    0.0000 C   0  0  2  0  0  0  0  0  0  0  0  0
    7.1671   -8.6350    0.0000 C   0  0  1  0  0  0  0  0  0  0  0  0
    7.8816   -8.2225    0.0000 C   0  0  2  0  0  0  0  0  0  0  0  0
    7.8816   -7.3975    0.0000 C   0  0  0  0  0  0  0  0  0  0  0  0
    7.1671   -6.9850    0.0000 C   0  0  0  0  0  0  0  0  0  0  0  0
    8.5960   -8.6350    0.0000 C   0  0  0  0  0  0  0  0  0  0  0  0
    6.4526   -9.0475    0.0000 H   0  0  0  0  0  0  0  0  0  0  0  0
    6.4526   -6.5725    0.0000 C   0  0  0  0  0  0  0  0  0  0  0  0
    8.5960   -9.4600    0.0000 C   0  0  0  0  0  0  0  0  0  0  0  0
    9.3105   -8.2225    0.0000 C   0  0  0  0  0  0  0  0  0  0  0  0
    5.7381   -9.4600    0.0000 C   0  0  0  0  0  0  0  0  0  0  0  0
    5.7381   -6.1600    0.0000 O   0  0  0  0  0  0  0  0  0  0  0  0
    7.1671   -9.4600    0.0000 O   0  0  0  0  0  0  0  0  0  0  0  0
  1  2  1  0  0  0  0
  2  3  1  0  0  0  0
  3  4  1  0  0  0  0
  4  5  1  0  0  0  0
  5  6  1  0  0  0  0
  6  1  1  0  0  0  0
  4  7  1  0  0  0  0
  7  8  1  0  0  0  0
  8  9  1  0  0  0  0
  9 10  1  0  0  0  0
 10  5  1  0  0  0  0
  8 11  1  6  0  0  0
  4 12  1  6  0  0  0
  5 13  1  1  0  0  0
 11 14  1  0  0  0  0
 11 15  2  0  0  0  0
  3 16  1  6  0  0  0
  6 17  1  1  0  0  0
  7 18  1  1  0  0  0
M  END
>  <cdx:fragmentId>
5

$$$$
