99440.cdx
  Mrv1902 05222410242D          

 25 28  0  0  0  0            999 V2000
    4.4874   -8.6350    0.0000 C   0  0  0  0  0  0  0  0  0  0  0  0
    4.4874   -9.4600    0.0000 C   0  0  0  0  0  0  0  0  0  0  0  0
    5.2019   -9.8725    0.0000 C   0  0  1  0  0  0  0  0  0  0  0  0
    5.9164   -9.4600    0.0000 C   0  0  2  0  0  0  0  0  0  0  0  0
    5.9164   -8.6350    0.0000 C   0  0  1  0  0  0  0  0  0  0  0  0
    5.2019   -8.2225    0.0000 C   0  0  0  0  0  0  0  0  0  0  0  0
    6.6308   -9.8725    0.0000 C   0  0  0  0  0  0  0  0  0  0  0  0
    7.3453   -9.4600    0.0000 C   0  0  0  0  0  0  0  0  0  0  0  0
    7.3453   -8.6350    0.0000 C   0  0  0  0  0  0  0  0  0  0  0  0
    6.6308   -8.2225    0.0000 C   0  0  1  0  0  0  0  0  0  0  0  0
    8.0598   -8.2225    0.0000 C   0  0  0  0  0  0  0  0  0  0  0  0
    8.0598   -7.3975    0.0000 C   0  0  0  0  0  0  0  0  0  0  0  0
    7.3453   -6.9850    0.0000 C   0  0  0  0  0  0  0  0  0  0  0  0
    6.6308   -7.3975    0.0000 C   0  0  0  0  0  0  0  0  0  0  0  0
    4.7894  -10.5870    0.0000 C   0  0  0  0  0  0  0  0  0  0  0  0
    5.9164  -10.2850    0.0000 H   0  0  0  0  0  0  0  0  0  0  0  0
    8.0598   -9.0475    0.0000 C   0  0  0  0  0  0  0  0  0  0  0  0
    8.7743   -7.8100    0.0000 C   0  0  1  0  0  0  0  0  0  0  0  0
    5.6144  -10.5870    0.0000 C   0  0  0  0  0  0  0  0  0  0  0  0
    5.9164   -7.8100    0.0000 C   0  0  0  0  0  0  0  0  0  0  0  0
    9.5711   -8.0235    0.0000 C   0  0  0  0  0  0  0  0  0  0  0  0
    3.7730   -9.8725    0.0000 O   0  0  0  0  0  0  0  0  0  0  0  0
    9.3576   -7.2266    0.0000 O   0  0  0  0  0  0  0  0  0  0  0  0
    6.6308   -9.0475    0.0000 H   0  0  0  0  0  0  0  0  0  0  0  0
   10.1545   -7.4402    0.0000 O   0  0  0  0  0  0  0  0  0  0  0  0
  1  2  1  0  0  0  0
  2  3  1  0  0  0  0
  3  4  1  0  0  0  0
  4  5  1  0  0  0  0
  5  6  1  0  0  0  0
  6  1  1  0  0  0  0
  4  7  1  0  0  0  0
  7  8  1  0  0  0  0
  8  9  1  0  0  0  0
  9 10  1  0  0  0  0
 10  5  1  0  0  0  0
  9 11  1  0  0  0  0
 11 12  1  0  0  0  0
 12 13  1  0  0  0  0
 13 14  1  0  0  0  0
 14 10  1  0  0  0  0
  3 15  1  1  0  0  0
  4 16  1  1  0  0  0
  9 17  1  0  0  0  0
 12 18  1  0  0  0  0
  3 19  1  6  0  0  0
  5 20  1  6  0  0  0
 18 17  1  0  0  0  0
 18 21  1  6  0  0  0
  2 22  2  0  0  0  0
 18 23  1  1  0  0  0
 10 24  1  1  0  0  0
 21 25  1  0  0  0  0
M  END
>  <cdx:fragmentId>
5

$$$$
