99444.cdx
  Mrv1902 05222410252D          

 17 18  0  0  0  0            999 V2000
    6.7928   -7.3563    0.0000 C   0  0  0  0  0  0  0  0  0  0  0  0
    6.7928   -8.1813    0.0000 C   0  0  0  0  0  0  0  0  0  0  0  0
    7.4378   -8.6956    0.0000 C   0  0  1  0  0  0  0  0  0  0  0  0
    8.2422   -8.5120    0.0000 C   0  0  1  0  0  0  0  0  0  0  0  0
    8.6001   -7.7687    0.0000 C   0  0  0  0  0  0  0  0  0  0  0  0
    8.2422   -7.0255    0.0000 C   0  0  0  0  0  0  0  0  0  0  0  0
    7.4378   -6.8419    0.0000 C   0  0  0  0  0  0  0  0  0  0  0  0
    6.0082   -7.1013    0.0000 C   0  0  0  0  0  0  0  0  0  0  0  0
    5.5233   -7.7687    0.0000 C   0  0  0  0  0  0  0  0  0  0  0  0
    6.0082   -8.4362    0.0000 C   0  0  2  0  0  0  0  0  0  0  0  0
    7.2543   -6.0376    0.0000 C   0  0  0  0  0  0  0  0  0  0  0  0
    8.7565   -9.1571    0.0000 C   0  0  0  0  0  0  0  0  0  0  0  0
    9.5723   -9.0341    0.0000 C   0  0  0  0  0  0  0  0  0  0  0  0
    8.4551   -9.9250    0.0000 C   0  0  0  0  0  0  0  0  0  0  0  0
    7.2543   -9.4999    0.0000 O   0  0  0  0  0  0  0  0  0  0  0  0
    5.4249   -9.0196    0.0000 O   0  0  0  0  0  0  0  0  0  0  0  0
    6.2217   -9.2331    0.0000 C   0  0  0  0  0  0  0  0  0  0  0  0
  1  2  1  0  0  0  0
  2  3  1  0  0  0  0
  3  4  1  0  0  0  0
  4  5  1  0  0  0  0
  5  6  1  0  0  0  0
  6  7  2  0  0  0  0
  7  1  1  0  0  0  0
  1  8  1  0  0  0  0
  8  9  1  0  0  0  0
  9 10  1  0  0  0  0
 10  2  1  0  0  0  0
  7 11  1  0  0  0  0
  4 12  1  1  0  0  0
 12 13  1  0  0  0  0
 12 14  1  0  0  0  0
  3 15  1  1  0  0  0
 10 16  1  1  0  0  0
 10 17  1  6  0  0  0
M  END
>  <cdx:fragmentId>
5

$$$$
