99456.cdx
  Mrv1902 05222410232D          

 38 41  0  0  0  0            999 V2000
    7.9179   -6.6011    0.0000 C   0  0  0  0  0  0  0  0  0  0  0  0
    7.9164   -5.7761    0.0000 C   0  0  0  0  0  0  0  0  0  0  0  0
    7.2012   -5.3649    0.0000 C   0  0  0  0  0  0  0  0  0  0  0  0
    8.6301   -5.3623    0.0000 C   0  0  0  0  0  0  0  0  0  0  0  0
    7.9149   -4.9511    0.0000 O   0  0  0  0  0  0  0  0  0  0  0  0
    9.3391   -8.2585    0.0000 C   0  0  0  0  0  0  0  0  0  0  0  0
    9.3391   -9.0835    0.0000 C   0  0  0  0  0  0  0  0  0  0  0  0
   10.0535   -9.4960    0.0000 O   0  0  0  0  0  0  0  0  0  0  0  0
    8.6246   -9.4960    0.0000 C   0  0  0  0  0  0  0  0  0  0  0  0
    8.6246  -10.3210    0.0000 O   0  0  0  0  0  0  0  0  0  0  0  0
    7.9101   -9.0835    0.0000 C   0  0  0  0  0  0  0  0  0  0  0  0
    7.1956   -9.4960    0.0000 C   0  0  0  0  0  0  0  0  0  0  0  0
    7.1956  -10.3210    0.0000 O   0  0  0  0  0  0  0  0  0  0  0  0
    6.4812   -9.0835    0.0000 C   0  0  0  0  0  0  0  0  0  0  0  0
    6.4812   -8.2585    0.0000 C   0  0  0  0  0  0  0  0  0  0  0  0
    7.1956   -7.8460    0.0000 C   0  0  0  0  0  0  0  0  0  0  0  0
    7.9101   -8.2585    0.0000 C   0  0  0  0  0  0  0  0  0  0  0  0
    8.6246   -7.8460    0.0000 O   0  0  0  0  0  0  0  0  0  0  0  0
   10.0535   -7.8460    0.0000 C   0  0  0  0  0  0  0  0  0  0  0  0
   10.0535   -7.0210    0.0000 C   0  0  0  0  0  0  0  0  0  0  0  0
   10.7680   -6.6085    0.0000 C   0  0  0  0  0  0  0  0  0  0  0  0
   11.4825   -7.0210    0.0000 C   0  0  0  0  0  0  0  0  0  0  0  0
   12.1969   -6.6085    0.0000 O   0  0  0  0  0  0  0  0  0  0  0  0
   11.4825   -7.8460    0.0000 C   0  0  0  0  0  0  0  0  0  0  0  0
   10.7680   -8.2585    0.0000 C   0  0  0  0  0  0  0  0  0  0  0  0
    5.7667   -7.8460    0.0000 O   0  0  0  0  0  0  0  0  0  0  0  0
    5.0522   -8.2585    0.0000 C   0  0  0  0  0  0  0  0  0  0  0  0
    5.0522   -9.0835    0.0000 C   0  0  2  0  0  0  0  0  0  0  0  0
    5.7667   -9.4960    0.0000 O   0  0  0  0  0  0  0  0  0  0  0  0
    4.3378   -9.4960    0.0000 C   0  0  1  0  0  0  0  0  0  0  0  0
    4.3378  -10.3210    0.0000 O   0  0  0  0  0  0  0  0  0  0  0  0
    3.6233   -9.0835    0.0000 C   0  0  2  0  0  0  0  0  0  0  0  0
    2.9088   -9.4960    0.0000 O   0  0  0  0  0  0  0  0  0  0  0  0
    3.6233   -8.2585    0.0000 C   0  0  2  0  0  0  0  0  0  0  0  0
    4.3378   -7.8460    0.0000 O   0  0  0  0  0  0  0  0  0  0  0  0
    2.9088   -7.8460    0.0000 C   0  0  0  0  0  0  0  0  0  0  0  0
    2.1944   -8.2585    0.0000 O   0  0  0  0  0  0  0  0  0  0  0  0
    7.1956   -7.0210    0.0000 C   0  0  0  0  0  0  0  0  0  0  0  0
  1  2  1  0  0  0  0
  2  3  1  0  0  0  0
  2  4  1  0  0  0  0
  2  5  1  0  0  0  0
  6  7  2  0  0  0  0
  7  8  1  0  0  0  0
  7  9  1  0  0  0  0
  9 10  2  0  0  0  0
  9 11  1  0  0  0  0
 11 12  1  0  0  0  0
 12 13  1  0  0  0  0
 12 14  2  0  0  0  0
 14 15  1  0  0  0  0
 15 16  2  0  0  0  0
 16 17  1  0  0  0  0
 11 17  2  0  0  0  0
 17 18  1  0  0  0  0
  6 18  1  0  0  0  0
  6 19  1  0  0  0  0
 19 20  1  0  0  0  0
 20 21  2  0  0  0  0
 21 22  1  0  0  0  0
 22 23  1  0  0  0  0
 22 24  2  0  0  0  0
 24 25  1  0  0  0  0
 19 25  2  0  0  0  0
 26 27  1  0  0  0  0
 27 28  1  0  0  0  0
 28 29  1  6  0  0  0
 28 30  1  0  0  0  0
 30 31  1  1  0  0  0
 30 32  1  0  0  0  0
 32 33  1  6  0  0  0
 32 34  1  0  0  0  0
 34 35  1  0  0  0  0
 34 36  1  1  0  0  0
 36 37  1  0  0  0  0
 27 35  1  0  0  0  0
 15 26  1  0  0  0  0
 16 38  1  0  0  0  0
 38  1  1  0  0  0  0
M  END
>  <cdx:fragmentId>
25

$$$$
