99451.cdx
  Mrv1902 05222410252D          

 23 25  0  0  0  0            999 V2000
    6.1787   -5.9950    0.0000 C   0  0  0  0  0  0  0  0  0  0  0  0
    6.1787   -6.8200    0.0000 C   0  0  0  0  0  0  0  0  0  0  0  0
    6.8931   -7.2325    0.0000 C   0  0  0  0  0  0  0  0  0  0  0  0
    7.6076   -6.8200    0.0000 C   0  0  0  0  0  0  0  0  0  0  0  0
    7.6076   -5.9950    0.0000 C   0  0  0  0  0  0  0  0  0  0  0  0
    6.8931   -5.5825    0.0000 C   0  0  0  0  0  0  0  0  0  0  0  0
    5.4642   -5.5825    0.0000 O   0  0  0  0  0  0  0  0  0  0  0  0
    4.7497   -5.9950    0.0000 C   0  0  0  0  0  0  0  0  0  0  0  0
    5.4642   -7.2325    0.0000 O   0  0  0  0  0  0  0  0  0  0  0  0
    8.3221   -7.2325    0.0000 C   0  0  0  0  0  0  0  0  0  0  0  0
    9.0366   -6.8200    0.0000 N   0  3  0  0  0  0  0  0  0  0  0  0
    9.0366   -5.9950    0.0000 C   0  0  0  0  0  0  0  0  0  0  0  0
    8.3221   -5.5825    0.0000 C   0  0  0  0  0  0  0  0  0  0  0  0
    6.8931   -8.0575    0.0000 C   0  0  0  0  0  0  0  0  0  0  0  0
    7.6076   -8.4700    0.0000 C   0  0  0  0  0  0  0  0  0  0  0  0
    8.3221   -8.0575    0.0000 C   0  0  0  0  0  0  0  0  0  0  0  0
    6.1787   -8.4700    0.0000 C   0  0  0  0  0  0  0  0  0  0  0  0
    6.1787   -9.2950    0.0000 C   0  0  0  0  0  0  0  0  0  0  0  0
    6.8931   -9.7075    0.0000 C   0  0  0  0  0  0  0  0  0  0  0  0
    7.6076   -9.2950    0.0000 C   0  0  0  0  0  0  0  0  0  0  0  0
    5.4642   -9.7075    0.0000 O   0  0  0  0  0  0  0  0  0  0  0  0
    9.2501   -7.6169    0.0000 C   0  0  0  0  0  0  0  0  0  0  0  0
    9.8335   -6.6065    0.0000 C   0  0  0  0  0  0  0  0  0  0  0  0
  1  2  2  0  0  0  0
  2  3  1  0  0  0  0
  3  4  2  0  0  0  0
  4  5  1  0  0  0  0
  5  6  2  0  0  0  0
  6  1  1  0  0  0  0
  1  7  1  0  0  0  0
  7  8  1  0  0  0  0
  9  2  1  0  0  0  0
  4 10  1  0  0  0  0
 10 11  1  0  0  0  0
 11 12  1  0  0  0  0
 12 13  2  0  0  0  0
 13  5  1  0  0  0  0
 14 15  2  0  0  0  0
 15 16  1  0  0  0  0
 16 10  1  0  0  0  0
 14 17  1  0  0  0  0
 17 18  2  0  0  0  0
 18 19  1  0  0  0  0
 19 20  2  0  0  0  0
 20 15  1  0  0  0  0
 18 21  1  0  0  0  0
 11 22  1  0  0  0  0
 11 23  1  0  0  0  0
M  CHG  1  11   1
M  END
>  <cdx:fragmentId>
5

$$$$
