99457.cdx
  Mrv1902 05222410232D          

 20 22  0  0  0  0            999 V2000
    5.5453   -7.7426    0.0000 C   0  0  0  0  0  0  0  0  0  0  0  0
    5.1332   -8.4573    0.0000 C   0  0  0  0  0  0  0  0  0  0  0  0
    5.5460   -9.1715    0.0000 C   0  0  0  0  0  0  0  0  0  0  0  0
    6.3710   -9.1711    0.0000 C   0  0  0  0  0  0  0  0  0  0  0  0
    6.7831   -8.4565    0.0000 C   0  0  0  0  0  0  0  0  0  0  0  0
    7.6081   -8.4560    0.0000 C   0  0  0  0  0  0  0  0  0  0  0  0
    8.0210   -9.1703    0.0000 C   0  0  0  0  0  0  0  0  0  0  0  0
    8.8460   -9.1699    0.0000 C   0  0  0  0  0  0  0  0  0  0  0  0
    9.2581   -8.4552    0.0000 C   0  0  0  0  0  0  0  0  0  0  0  0
    8.8453   -7.7410    0.0000 C   0  0  0  0  0  0  0  0  0  0  0  0
    8.0203   -7.7414    0.0000 C   0  0  0  0  0  0  0  0  0  0  0  0
    7.6075   -7.0271    0.0000 C   0  0  0  0  0  0  0  0  0  0  0  0
    6.7825   -7.0275    0.0000 C   0  0  0  0  0  0  0  0  0  0  0  0
    6.3703   -7.7422    0.0000 C   0  0  0  0  0  0  0  0  0  0  0  0
    6.7838   -9.8854    0.0000 O   0  0  0  0  0  0  0  0  0  0  0  0
    7.6088   -9.8850    0.0000 O   0  0  0  0  0  0  0  0  0  0  0  0
   10.0831   -8.4548    0.0000 O   0  0  0  0  0  0  0  0  0  0  0  0
   10.4960   -9.1691    0.0000 C   0  0  0  0  0  0  0  0  0  0  0  0
    6.3696   -6.3132    0.0000 O   0  0  0  0  0  0  0  0  0  0  0  0
    8.0196   -6.3124    0.0000 O   0  0  0  0  0  0  0  0  0  0  0  0
  1  2  1  0  0  0  0
  2  3  2  0  0  0  0
  3  4  1  0  0  0  0
  4  5  2  0  0  0  0
  5  6  1  0  0  0  0
  6  7  2  0  0  0  0
  7  8  1  0  0  0  0
  8  9  2  0  0  0  0
  9 10  1  0  0  0  0
 10 11  2  0  0  0  0
  6 11  1  0  0  0  0
 11 12  1  0  0  0  0
 12 13  2  0  0  0  0
 13 14  1  0  0  0  0
  1 14  2  0  0  0  0
  5 14  1  0  0  0  0
  4 15  1  0  0  0  0
  7 16  1  0  0  0  0
  9 17  1  0  0  0  0
 17 18  1  0  0  0  0
 13 19  1  0  0  0  0
 12 20  1  0  0  0  0
M  END
>  <cdx:fragmentId>
5

$$$$
