99454.cdx
  Mrv1902 05222410242D          

 41 46  0  0  0  0            999 V2000
   10.4601   -4.8776    0.0000 O   0  0  0  0  0  0  0  0  0  0  0  0
   10.9450   -5.5451    0.0000 C   0  0  0  0  0  0  0  0  0  0  0  0
   10.4601   -6.2125    0.0000 O   0  0  0  0  0  0  0  0  0  0  0  0
    9.6755   -5.9576    0.0000 C   0  0  0  0  0  0  0  0  0  0  0  0
    9.6755   -5.1326    0.0000 C   0  0  0  0  0  0  0  0  0  0  0  0
    8.9610   -6.3701    0.0000 C   0  0  0  0  0  0  0  0  0  0  0  0
    8.2465   -5.9576    0.0000 C   0  0  0  0  0  0  0  0  0  0  0  0
    8.2465   -5.1326    0.0000 C   0  0  0  0  0  0  0  0  0  0  0  0
    8.9610   -4.7201    0.0000 C   0  0  0  0  0  0  0  0  0  0  0  0
    5.5481   -5.5451    0.0000 O   0  0  0  0  0  0  0  0  0  0  0  0
    6.0330   -4.8776    0.0000 C   0  0  0  0  0  0  0  0  0  0  0  0
    6.8176   -5.1326    0.0000 C   0  0  1  0  0  0  0  0  0  0  0  0
    6.8176   -5.9576    0.0000 C   0  0  2  0  0  0  0  0  0  0  0  0
    6.0330   -6.2125    0.0000 C   0  0  0  0  0  0  0  0  0  0  0  0
    7.5321   -6.3701    0.0000 C   0  0  2  0  0  0  0  0  0  0  0  0
    7.5321   -4.7201    0.0000 C   0  0  0  0  0  0  0  0  0  0  0  0
    5.7780   -6.9971    0.0000 O   0  0  0  0  0  0  0  0  0  0  0  0
    7.5321   -7.1951    0.0000 C   0  0  0  0  0  0  0  0  0  0  0  0
    8.2465   -7.6076    0.0000 C   0  0  0  0  0  0  0  0  0  0  0  0
    8.2465   -8.4326    0.0000 C   0  0  0  0  0  0  0  0  0  0  0  0
    7.5321   -8.8451    0.0000 C   0  0  0  0  0  0  0  0  0  0  0  0
    6.8176   -8.4326    0.0000 C   0  0  0  0  0  0  0  0  0  0  0  0
    6.8176   -7.6076    0.0000 C   0  0  0  0  0  0  0  0  0  0  0  0
    6.1031   -8.8451    0.0000 O   0  0  0  0  0  0  0  0  0  0  0  0
    5.3887   -8.4326    0.0000 C   0  0  0  0  0  0  0  0  0  0  0  0
    8.9610   -8.8451    0.0000 O   0  0  0  0  0  0  0  0  0  0  0  0
    9.6755   -8.4326    0.0000 C   0  0  0  0  0  0  0  0  0  0  0  0
    7.5321   -9.6701    0.0000 O   0  0  0  0  0  0  0  0  0  0  0  0
    6.7314   -6.7780    0.0000 H   0  0  0  0  0  0  0  0  0  0  0  0
    6.7314   -4.3121    0.0000 H   0  0  0  0  0  0  0  0  0  0  0  0
    5.3947  -10.0872    0.0000 C   0  0  2  0  0  0  0  0  0  0  0  0
    5.3947  -10.9122    0.0000 C   0  0  2  0  0  0  0  0  0  0  0  0
    6.1091  -11.3247    0.0000 C   0  0  1  0  0  0  0  0  0  0  0  0
    6.8236  -10.9122    0.0000 C   0  0  2  0  0  0  0  0  0  0  0  0
    6.8236  -10.0872    0.0000 C   0  0  1  0  0  0  0  0  0  0  0  0
    6.1091   -9.6747    0.0000 O   0  0  0  0  0  0  0  0  0  0  0  0
    4.6802   -9.6747    0.0000 C   0  0  0  0  0  0  0  0  0  0  0  0
    6.1091  -12.1497    0.0000 O   0  0  0  0  0  0  0  0  0  0  0  0
    4.6802  -11.3247    0.0000 O   0  0  0  0  0  0  0  0  0  0  0  0
    7.5381  -11.3247    0.0000 O   0  0  0  0  0  0  0  0  0  0  0  0
    3.9657  -10.0872    0.0000 O   0  0  0  0  0  0  0  0  0  0  0  0
  1  2  1  0  0  0  0
  2  3  1  0  0  0  0
  3  4  1  0  0  0  0
  4  5  1  0  0  0  0
  1  5  1  0  0  0  0
  6  7  1  0  0  0  0
  7  8  2  0  0  0  0
  8  9  1  0  0  0  0
  9  5  2  0  0  0  0
  6  4  2  0  0  0  0
 10 11  1  0  0  0  0
 11 12  1  0  0  0  0
 12 13  1  0  0  0  0
 13 14  1  0  0  0  0
 10 14  1  0  0  0  0
 16 12  1  0  0  0  0
 15 13  1  0  0  0  0
 15  7  1  0  0  0  0
 16  8  1  0  0  0  0
 14 17  2  0  0  0  0
 18 19  1  0  0  0  0
 19 20  2  0  0  0  0
 20 21  1  0  0  0  0
 21 22  2  0  0  0  0
 22 23  1  0  0  0  0
 18 23  2  0  0  0  0
 24 25  1  0  0  0  0
 22 24  1  0  0  0  0
 26 27  1  0  0  0  0
 20 26  1  0  0  0  0
 21 28  1  0  0  0  0
 15 18  1  1  0  0  0
 13 29  1  6  0  0  0
 12 30  1  1  0  0  0
 31 32  1  0  0  0  0
 32 33  1  0  0  0  0
 33 34  1  0  0  0  0
 34 35  1  0  0  0  0
 35 36  1  0  0  0  0
 36 31  1  0  0  0  0
 31 37  1  1  0  0  0
 33 38  1  1  0  0  0
 32 39  1  6  0  0  0
 34 40  1  6  0  0  0
 37 41  1  0  0  0  0
 35 28  1  1  0  0  0
M  END
>  <cdx:fragmentId>
5

$$$$
