99455.cdx
  Mrv1902 05222410242D          

 42 47  0  0  0  0            999 V2000
    9.4839   -7.8947    0.0000 O   0  0  0  0  0  0  0  0  0  0  0  0
    9.9688   -7.2272    0.0000 C   0  0  0  0  0  0  0  0  0  0  0  0
    9.4839   -6.5598    0.0000 O   0  0  0  0  0  0  0  0  0  0  0  0
    8.6992   -6.8147    0.0000 C   0  0  0  0  0  0  0  0  0  0  0  0
    8.6992   -7.6397    0.0000 C   0  0  0  0  0  0  0  0  0  0  0  0
    7.9848   -6.4022    0.0000 C   0  0  0  0  0  0  0  0  0  0  0  0
    7.2703   -6.8147    0.0000 C   0  0  0  0  0  0  0  0  0  0  0  0
    7.2703   -7.6397    0.0000 C   0  0  0  0  0  0  0  0  0  0  0  0
    7.9848   -8.0522    0.0000 C   0  0  0  0  0  0  0  0  0  0  0  0
    4.5718   -7.2272    0.0000 O   0  0  0  0  0  0  0  0  0  0  0  0
    5.0567   -7.8947    0.0000 C   0  0  0  0  0  0  0  0  0  0  0  0
    5.8413   -7.6397    0.0000 C   0  0  1  0  0  0  0  0  0  0  0  0
    5.8413   -6.8147    0.0000 C   0  0  2  0  0  0  0  0  0  0  0  0
    5.0567   -6.5598    0.0000 C   0  0  0  0  0  0  0  0  0  0  0  0
    6.5558   -6.4022    0.0000 C   0  0  1  0  0  0  0  0  0  0  0  0
    6.5558   -8.0522    0.0000 C   0  0  2  0  0  0  0  0  0  0  0  0
    4.8018   -8.6793    0.0000 O   0  0  0  0  0  0  0  0  0  0  0  0
    6.5558   -8.8772    0.0000 C   0  0  0  0  0  0  0  0  0  0  0  0
    7.2703   -9.2897    0.0000 C   0  0  0  0  0  0  0  0  0  0  0  0
    7.2703  -10.1147    0.0000 C   0  0  0  0  0  0  0  0  0  0  0  0
    6.5558  -10.5272    0.0000 C   0  0  0  0  0  0  0  0  0  0  0  0
    5.8413  -10.1147    0.0000 C   0  0  0  0  0  0  0  0  0  0  0  0
    5.8413   -9.2897    0.0000 C   0  0  0  0  0  0  0  0  0  0  0  0
    5.1269  -10.5272    0.0000 O   0  0  0  0  0  0  0  0  0  0  0  0
    4.4124  -10.1147    0.0000 C   0  0  0  0  0  0  0  0  0  0  0  0
    7.9848  -10.5272    0.0000 O   0  0  0  0  0  0  0  0  0  0  0  0
    8.6992  -10.1147    0.0000 C   0  0  0  0  0  0  0  0  0  0  0  0
    6.5558  -11.3522    0.0000 O   0  0  0  0  0  0  0  0  0  0  0  0
    6.5558   -5.5772    0.0000 O   0  0  0  0  0  0  0  0  0  0  0  0
    5.7551   -5.9942    0.0000 H   0  0  0  0  0  0  0  0  0  0  0  0
    5.7551   -8.4602    0.0000 H   0  0  0  0  0  0  0  0  0  0  0  0
    4.4322  -11.7533    0.0000 C   0  0  2  0  0  0  0  0  0  0  0  0
    4.4322  -12.5783    0.0000 C   0  0  2  0  0  0  0  0  0  0  0  0
    5.1466  -12.9908    0.0000 C   0  0  1  0  0  0  0  0  0  0  0  0
    5.8611  -12.5783    0.0000 C   0  0  2  0  0  0  0  0  0  0  0  0
    5.8611  -11.7533    0.0000 C   0  0  1  0  0  0  0  0  0  0  0  0
    5.1466  -11.3408    0.0000 O   0  0  0  0  0  0  0  0  0  0  0  0
    3.7177  -11.3408    0.0000 C   0  0  0  0  0  0  0  0  0  0  0  0
    5.1466  -13.8158    0.0000 O   0  0  0  0  0  0  0  0  0  0  0  0
    3.7177  -12.9908    0.0000 O   0  0  0  0  0  0  0  0  0  0  0  0
    6.5756  -12.9908    0.0000 O   0  0  0  0  0  0  0  0  0  0  0  0
    3.0032  -11.7533    0.0000 O   0  0  0  0  0  0  0  0  0  0  0  0
  1  2  1  0  0  0  0
  2  3  1  0  0  0  0
  3  4  1  0  0  0  0
  4  5  1  0  0  0  0
  1  5  1  0  0  0  0
  6  7  1  0  0  0  0
  7  8  2  0  0  0  0
  8  9  1  0  0  0  0
  9  5  2  0  0  0  0
  6  4  2  0  0  0  0
 10 11  1  0  0  0  0
 11 12  1  0  0  0  0
 12 13  1  0  0  0  0
 13 14  1  0  0  0  0
 10 14  1  0  0  0  0
 16 12  1  0  0  0  0
 15 13  1  0  0  0  0
 15  7  1  0  0  0  0
 16  8  1  0  0  0  0
 11 17  2  0  0  0  0
 18 19  1  0  0  0  0
 19 20  2  0  0  0  0
 20 21  1  0  0  0  0
 21 22  2  0  0  0  0
 22 23  1  0  0  0  0
 18 23  2  0  0  0  0
 24 25  1  0  0  0  0
 22 24  1  0  0  0  0
 26 27  1  0  0  0  0
 20 26  1  0  0  0  0
 21 28  1  0  0  0  0
 16 18  1  1  0  0  0
 15 29  1  1  0  0  0
 13 30  1  1  0  0  0
 12 31  1  6  0  0  0
 32 33  1  0  0  0  0
 33 34  1  0  0  0  0
 34 35  1  0  0  0  0
 35 36  1  0  0  0  0
 36 37  1  0  0  0  0
 37 32  1  0  0  0  0
 32 38  1  1  0  0  0
 34 39  1  1  0  0  0
 33 40  1  6  0  0  0
 35 41  1  6  0  0  0
 38 42  1  0  0  0  0
 36 28  1  1  0  0  0
M  END
>  <cdx:fragmentId>
5

$$$$
