99450.cdx
  Mrv1902 05222410252D          

 27 29  0  0  0  0            999 V2000
    6.8112   -9.8038    0.0000 C   0  0  0  0  0  0  0  0  0  0  0  0
    6.8112  -10.6288    0.0000 C   0  0  0  0  0  0  0  0  0  0  0  0
    7.5256  -11.0412    0.0000 C   0  0  0  0  0  0  0  0  0  0  0  0
    8.2401  -10.6288    0.0000 C   0  0  0  0  0  0  0  0  0  0  0  0
    8.2401   -9.8038    0.0000 C   0  0  0  0  0  0  0  0  0  0  0  0
    7.5256   -9.3913    0.0000 C   0  0  0  0  0  0  0  0  0  0  0  0
    7.3541   -8.5843    0.0000 C   0  0  1  0  0  0  0  0  0  0  0  0
    6.5336   -8.4980    0.0000 C   0  0  2  0  0  0  0  0  0  0  0  0
    6.1981   -9.2517    0.0000 O   0  0  0  0  0  0  0  0  0  0  0  0
    6.1211   -7.7836    0.0000 C   0  0  0  0  0  0  0  0  0  0  0  0
    6.5336   -7.0691    0.0000 C   0  0  0  0  0  0  0  0  0  0  0  0
    6.1211   -6.3546    0.0000 C   0  0  0  0  0  0  0  0  0  0  0  0
    5.2961   -6.3546    0.0000 C   0  0  0  0  0  0  0  0  0  0  0  0
    4.8836   -7.0691    0.0000 C   0  0  0  0  0  0  0  0  0  0  0  0
    5.2961   -7.7836    0.0000 C   0  0  0  0  0  0  0  0  0  0  0  0
    6.0967  -11.0412    0.0000 O   0  0  0  0  0  0  0  0  0  0  0  0
    8.9546   -9.3912    0.0000 C   0  0  0  0  0  0  0  0  0  0  0  0
    9.6691   -9.8037    0.0000 C   0  0  0  0  0  0  0  0  0  0  0  0
   10.3835   -9.3912    0.0000 C   0  0  0  0  0  0  0  0  0  0  0  0
   11.0980   -9.8037    0.0000 O   0  0  0  0  0  0  0  0  0  0  0  0
   10.3835   -8.5662    0.0000 O   0  0  0  0  0  0  0  0  0  0  0  0
    7.9062   -7.9712    0.0000 C   0  0  0  0  0  0  0  0  0  0  0  0
    7.6512   -7.1866    0.0000 O   0  0  0  0  0  0  0  0  0  0  0  0
    8.7131   -8.1427    0.0000 O   0  0  0  0  0  0  0  0  0  0  0  0
    4.0586   -7.0691    0.0000 O   0  0  0  0  0  0  0  0  0  0  0  0
    4.8836   -5.6402    0.0000 O   0  0  0  0  0  0  0  0  0  0  0  0
   11.8125   -9.3912    0.0000 C   0  0  0  0  0  0  0  0  0  0  0  0
  1  2  2  0  0  0  0
  2  3  1  0  0  0  0
  3  4  2  0  0  0  0
  4  5  1  0  0  0  0
  5  6  2  0  0  0  0
  6  1  1  0  0  0  0
  6  7  1  0  0  0  0
  7  8  1  0  0  0  0
  8  9  1  0  0  0  0
  9  1  1  0  0  0  0
  8 10  1  6  0  0  0
 10 11  2  0  0  0  0
 11 12  1  0  0  0  0
 12 13  2  0  0  0  0
 13 14  1  0  0  0  0
 14 15  2  0  0  0  0
 15 10  1  0  0  0  0
  2 16  1  0  0  0  0
  5 17  1  0  0  0  0
 17 18  2  0  0  0  0
 18 19  1  0  0  0  0
 19 20  1  0  0  0  0
 19 21  2  0  0  0  0
  7 22  1  1  0  0  0
 22 23  2  0  0  0  0
 22 24  1  0  0  0  0
 14 25  1  0  0  0  0
 13 26  1  0  0  0  0
 20 27  1  0  0  0  0
M  END
>  <cdx:fragmentId>
5

$$$$
