99453.cdx
  Mrv1902 05222410252D          

 25 27  0  0  0  0            999 V2000
    6.1649   -6.7512    0.0000 C   0  0  0  0  0  0  0  0  0  0  0  0
    6.1649   -7.5762    0.0000 C   0  0  0  0  0  0  0  0  0  0  0  0
    6.8794   -7.9888    0.0000 C   0  0  0  0  0  0  0  0  0  0  0  0
    7.5939   -7.5762    0.0000 C   0  0  0  0  0  0  0  0  0  0  0  0
    7.5939   -6.7512    0.0000 C   0  0  0  0  0  0  0  0  0  0  0  0
    6.8794   -6.3388    0.0000 C   0  0  0  0  0  0  0  0  0  0  0  0
    8.3083   -7.9888    0.0000 C   0  0  0  0  0  0  0  0  0  0  0  0
    9.0228   -7.5762    0.0000 N   0  3  0  0  0  0  0  0  0  0  0  0
    9.0228   -6.7512    0.0000 C   0  0  0  0  0  0  0  0  0  0  0  0
    8.3083   -6.3388    0.0000 C   0  0  0  0  0  0  0  0  0  0  0  0
    5.4505   -6.3388    0.0000 O   0  0  0  0  0  0  0  0  0  0  0  0
    4.7360   -6.7512    0.0000 C   0  0  0  0  0  0  0  0  0  0  0  0
    5.4505   -7.9887    0.0000 O   0  0  0  0  0  0  0  0  0  0  0  0
    6.8794   -8.8138    0.0000 C   0  0  0  0  0  0  0  0  0  0  0  0
    7.5939   -9.2263    0.0000 C   0  0  0  0  0  0  0  0  0  0  0  0
    8.3083   -8.8138    0.0000 C   0  0  0  0  0  0  0  0  0  0  0  0
    6.1649   -9.2263    0.0000 C   0  0  0  0  0  0  0  0  0  0  0  0
    6.1649  -10.0512    0.0000 C   0  0  0  0  0  0  0  0  0  0  0  0
    6.8794  -10.4637    0.0000 C   0  0  0  0  0  0  0  0  0  0  0  0
    7.5939  -10.0512    0.0000 C   0  0  0  0  0  0  0  0  0  0  0  0
    5.4505   -8.8138    0.0000 O   0  0  0  0  0  0  0  0  0  0  0  0
    4.7360  -10.0512    0.0000 C   0  0  0  0  0  0  0  0  0  0  0  0
    5.4505  -10.4637    0.0000 O   0  0  0  0  0  0  0  0  0  0  0  0
    9.2363   -8.3731    0.0000 C   0  0  0  0  0  0  0  0  0  0  0  0
    9.8478   -7.5762    0.0000 C   0  0  0  0  0  0  0  0  0  0  0  0
  1  2  2  0  0  0  0
  2  3  1  0  0  0  0
  3  4  2  0  0  0  0
  4  5  1  0  0  0  0
  5  6  2  0  0  0  0
  6  1  1  0  0  0  0
  4  7  1  0  0  0  0
  7  8  1  0  0  0  0
  8  9  1  0  0  0  0
  9 10  2  0  0  0  0
 10  5  1  0  0  0  0
  1 11  1  0  0  0  0
 11 12  1  0  0  0  0
 13  2  1  0  0  0  0
 14 15  2  0  0  0  0
 15 16  1  0  0  0  0
 16  7  1  0  0  0  0
 14 17  1  0  0  0  0
 17 18  2  0  0  0  0
 18 19  1  0  0  0  0
 19 20  2  0  0  0  0
 20 15  1  0  0  0  0
 17 21  1  0  0  0  0
 22 23  1  0  0  0  0
 23 18  1  0  0  0  0
  8 24  1  0  0  0  0
  8 25  1  0  0  0  0
M  CHG  1   8   1
M  END
>  <cdx:fragmentId>
5

$$$$
