99452.cdx
  Mrv1902 05222410252D          

 46 52  0  0  0  0            999 V2000
    6.6456   -8.5668    0.0000 C   0  0  0  0  0  0  0  0  0  0  0  0
    6.2331   -9.2813    0.0000 C   0  0  0  0  0  0  0  0  0  0  0  0
    6.6456   -9.9957    0.0000 C   0  0  0  0  0  0  0  0  0  0  0  0
    7.4706   -9.9957    0.0000 C   0  0  0  0  0  0  0  0  0  0  0  0
    7.8831   -9.2813    0.0000 C   0  0  0  0  0  0  0  0  0  0  0  0
    7.4706   -8.5668    0.0000 C   0  0  0  0  0  0  0  0  0  0  0  0
    5.4081   -9.2813    0.0000 C   0  0  0  0  0  0  0  0  0  0  0  0
    4.9956   -8.5668    0.0000 C   0  0  0  0  0  0  0  0  0  0  0  0
    4.5830   -7.8524    0.0000 C   0  0  0  0  0  0  0  0  0  0  0  0
    3.7580   -7.8526    0.0000 C   0  0  0  0  0  0  0  0  0  0  0  0
    3.3456   -8.5671    0.0000 C   0  0  0  0  0  0  0  0  0  0  0  0
    3.7583   -9.2815    0.0000 C   0  0  0  0  0  0  0  0  0  0  0  0
    4.5833   -9.2813    0.0000 N   0  0  0  0  0  0  0  0  0  0  0  0
    4.9954   -7.1378    0.0000 C   0  0  0  0  0  0  0  0  0  0  0  0
    4.5827   -6.4235    0.0000 C   0  0  0  0  0  0  0  0  0  0  0  0
    3.7577   -6.4236    0.0000 C   0  0  0  0  0  0  0  0  0  0  0  0
    3.3454   -7.1382    0.0000 C   0  0  0  0  0  0  0  0  0  0  0  0
    3.3451   -5.7092    0.0000 O   0  0  0  0  0  0  0  0  0  0  0  0
    4.9951   -5.7089    0.0000 O   0  0  0  0  0  0  0  0  0  0  0  0
    2.5201   -5.7092    0.0000 C   0  0  0  0  0  0  0  0  0  0  0  0
    5.8201   -5.7089    0.0000 C   0  0  0  0  0  0  0  0  0  0  0  0
    6.2326   -6.4234    0.0000 C   0  0  0  0  0  0  0  0  0  0  0  0
    6.6456   -7.1375    0.0000 C   0  0  0  0  0  0  0  0  0  0  0  0
    7.4706   -7.1370    0.0000 C   0  0  0  0  0  0  0  0  0  0  0  0
    7.8826   -6.4222    0.0000 C   0  0  0  0  0  0  0  0  0  0  0  0
    7.4696   -5.7080    0.0000 C   0  0  0  0  0  0  0  0  0  0  0  0
    6.6446   -5.7086    0.0000 C   0  0  0  0  0  0  0  0  0  0  0  0
    8.7076   -6.4216    0.0000 C   0  0  0  0  0  0  0  0  0  0  0  0
    9.1206   -7.1358    0.0000 C   0  0  0  0  0  0  0  0  0  0  0  0
    9.5405   -7.8460    0.0000 C   0  0  0  0  0  0  0  0  0  0  0  0
   10.3644   -7.8391    0.0000 C   0  0  0  0  0  0  0  0  0  0  0  0
   10.7705   -7.1210    0.0000 C   0  0  0  0  0  0  0  0  0  0  0  0
   10.3516   -6.4114    0.0000 C   0  0  0  0  0  0  0  0  0  0  0  0
    9.5266   -6.4177    0.0000 N   0  0  0  0  0  0  0  0  0  0  0  0
    9.1344   -8.5629    0.0000 C   0  0  0  0  0  0  0  0  0  0  0  0
    9.5405   -9.2731    0.0000 C   0  0  0  0  0  0  0  0  0  0  0  0
   10.3644   -9.2731    0.0000 C   0  0  0  0  0  0  0  0  0  0  0  0
   10.7705   -8.5629    0.0000 C   0  0  0  0  0  0  0  0  0  0  0  0
    8.7081   -9.2813    0.0000 O   0  0  0  0  0  0  0  0  0  0  0  0
    9.1265   -9.9867    0.0000 O   0  0  0  0  0  0  0  0  0  0  0  0
    9.5375  -10.7020    0.0000 C   0  0  0  0  0  0  0  0  0  0  0  0
   10.7784   -9.9867    0.0000 O   0  0  0  0  0  0  0  0  0  0  0  0
   11.6034   -9.9867    0.0000 C   0  0  0  0  0  0  0  0  0  0  0  0
    5.8204   -7.1377    0.0000 O   0  0  0  0  0  0  0  0  0  0  0  0
    6.2330   -7.8520    0.0000 C   0  0  0  0  0  0  0  0  0  0  0  0
    9.1082   -5.7066    0.0000 C   0  0  0  0  0  0  0  0  0  0  0  0
  1  2  2  0  0  0  0
  2  3  1  0  0  0  0
  3  4  2  0  0  0  0
  4  5  1  0  0  0  0
  5  6  2  0  0  0  0
  6  1  1  0  0  0  0
  2  7  1  0  0  0  0
  7  8  1  0  0  0  0
  8  9  1  0  0  0  0
  9 10  2  0  0  0  0
 10 11  1  0  0  0  0
 11 12  1  0  0  0  0
 12 13  1  0  0  0  0
 13  8  1  0  0  0  0
  9 14  1  0  0  0  0
 14 15  2  0  0  0  0
 15 16  1  0  0  0  0
 16 17  2  0  0  0  0
 17 10  1  0  0  0  0
 16 18  1  0  0  0  0
 15 19  1  0  0  0  0
 18 20  1  0  0  0  0
 19 21  1  0  0  0  0
 21 22  1  0  0  0  0
 22 23  2  0  0  0  0
 23 24  1  0  0  0  0
 24 25  2  0  0  0  0
 25 26  1  0  0  0  0
 26 27  2  0  0  0  0
 27 22  1  0  0  0  0
 25 28  1  0  0  0  0
 28 29  1  0  0  0  0
 29 30  1  0  0  0  0
 30 31  2  0  0  0  0
 31 32  1  0  0  0  0
 32 33  1  0  0  0  0
 33 34  1  0  0  0  0
 34 29  1  0  0  0  0
 30 35  1  0  0  0  0
 35 36  2  0  0  0  0
 36 37  1  0  0  0  0
 37 38  2  0  0  0  0
 38 31  1  0  0  0  0
  5 39  1  0  0  0  0
 39 35  1  0  0  0  0
 36 40  1  0  0  0  0
 40 41  1  0  0  0  0
 37 42  1  0  0  0  0
 42 43  1  0  0  0  0
 14 44  1  0  0  0  0
 44 45  1  0  0  0  0
 34 46  1  0  0  0  0
M  END
>  <cdx:fragmentId>
5

$$$$
