99465.cdx
  Mrv1902 05222410222D          

 48 53  0  0  0  0            999 V2000
    6.8112   -7.9200    0.0000 C   0  0  1  0  0  0  0  0  0  0  0  0
    6.8112   -8.7450    0.0000 C   0  0  1  0  0  0  0  0  0  0  0  0
    7.5256   -9.1575    0.0000 C   0  0  1  0  0  0  0  0  0  0  0  0
    8.2401   -8.7450    0.0000 C   0  0  0  0  0  0  0  0  0  0  0  0
    8.2401   -7.9200    0.0000 C   0  0  2  0  0  0  0  0  0  0  0  0
    7.5256   -7.5075    0.0000 C   0  0  0  0  0  0  0  0  0  0  0  0
    8.9546   -9.1575    0.0000 C   0  0  0  0  0  0  0  0  0  0  0  0
    9.6691   -8.7450    0.0000 C   0  0  0  0  0  0  0  0  0  0  0  0
    9.6691   -7.9200    0.0000 C   0  0  2  0  0  0  0  0  0  0  0  0
    8.9546   -7.5075    0.0000 C   0  0  0  0  0  0  0  0  0  0  0  0
   10.3835   -7.5075    0.0000 C   0  0  1  0  0  0  0  0  0  0  0  0
   10.3835   -6.6825    0.0000 C   0  0  0  0  0  0  0  0  0  0  0  0
    9.6691   -6.2700    0.0000 C   0  0  0  0  0  0  0  0  0  0  0  0
    8.9546   -6.6825    0.0000 C   0  0  0  0  0  0  0  0  0  0  0  0
   11.0980   -7.9200    0.0000 C   0  0  0  0  0  0  0  0  0  0  0  0
   11.8125   -7.5075    0.0000 C   0  0  0  0  0  0  0  0  0  0  0  0
   11.8125   -6.6825    0.0000 C   0  0  2  0  0  0  0  0  0  0  0  0
   11.0980   -6.2700    0.0000 C   0  0  0  0  0  0  0  0  0  0  0  0
   12.5269   -6.2700    0.0000 C   0  0  0  0  0  0  0  0  0  0  0  0
   12.5269   -5.4450    0.0000 C   0  0  0  0  0  0  0  0  0  0  0  0
   11.8125   -5.0325    0.0000 C   0  0  2  0  0  0  0  0  0  0  0  0
   11.0980   -5.4450    0.0000 C   0  0  2  0  0  0  0  0  0  0  0  0
    6.0967   -7.5075    0.0000 O   0  0  0  0  0  0  0  0  0  0  0  0
    5.3822   -8.7450    0.0000 C   0  0  0  0  0  0  0  0  0  0  0  0
    6.0967   -9.1575    0.0000 O   0  0  0  0  0  0  0  0  0  0  0  0
    3.9533   -8.7450    0.0000 C   0  0  0  0  0  0  0  0  0  0  0  0
    4.6678   -9.1575    0.0000 C   0  0  0  0  0  0  0  0  0  0  0  0
    3.2388   -9.1575    0.0000 C   0  0  0  0  0  0  0  0  0  0  0  0
    3.2388   -9.9825    0.0000 C   0  0  0  0  0  0  0  0  0  0  0  0
    2.5244   -8.7450    0.0000 C   0  0  0  0  0  0  0  0  0  0  0  0
    1.8099   -9.1575    0.0000 C   0  0  0  0  0  0  0  0  0  0  0  0
    1.8099   -9.9825    0.0000 C   0  0  0  0  0  0  0  0  0  0  0  0
    2.5244  -10.3950    0.0000 C   0  0  0  0  0  0  0  0  0  0  0  0
    1.0954  -10.3950    0.0000 O   0  0  0  0  0  0  0  0  0  0  0  0
    2.5244  -11.2200    0.0000 O   0  0  0  0  0  0  0  0  0  0  0  0
    3.2388  -11.6325    0.0000 C   0  0  0  0  0  0  0  0  0  0  0  0
    5.3822   -7.9200    0.0000 O   0  0  0  0  0  0  0  0  0  0  0  0
   12.5269   -7.0950    0.0000 C   0  0  0  0  0  0  0  0  0  0  0  0
   13.2414   -6.6825    0.0000 O   0  0  0  0  0  0  0  0  0  0  0  0
   12.5269   -7.9200    0.0000 O   0  0  0  0  0  0  0  0  0  0  0  0
   10.2730   -5.4450    0.0000 C   0  0  0  0  0  0  0  0  0  0  0  0
    9.6691   -7.0950    0.0000 C   0  0  0  0  0  0  0  0  0  0  0  0
    8.2401   -7.0950    0.0000 C   0  0  0  0  0  0  0  0  0  0  0  0
    7.1131   -9.8720    0.0000 C   0  0  0  0  0  0  0  0  0  0  0  0
    7.9381   -9.8720    0.0000 C   0  0  0  0  0  0  0  0  0  0  0  0
   10.3835   -8.3325    0.0000 C   0  0  0  0  0  0  0  0  0  0  0  0
   10.6855   -4.7305    0.0000 O   0  0  0  0  0  0  0  0  0  0  0  0
   11.8125   -4.2075    0.0000 C   0  0  0  0  0  0  0  0  0  0  0  0
  1  2  1  0  0  0  0
  2  3  1  0  0  0  0
  3  4  1  0  0  0  0
  4  5  1  0  0  0  0
  5  6  1  0  0  0  0
  6  1  1  0  0  0  0
  4  7  1  0  0  0  0
  7  8  1  0  0  0  0
  8  9  1  0  0  0  0
  9 10  1  0  0  0  0
 10  5  1  0  0  0  0
  9 11  1  0  0  0  0
 11 12  1  0  0  0  0
 12 13  2  0  0  0  0
 13 14  1  0  0  0  0
 14 10  1  0  0  0  0
 11 15  1  0  0  0  0
 15 16  1  0  0  0  0
 16 17  1  0  0  0  0
 17 18  1  0  0  0  0
 18 12  1  0  0  0  0
 17 19  1  0  0  0  0
 19 20  1  0  0  0  0
 20 21  1  0  0  0  0
 21 22  1  0  0  0  0
 22 18  1  0  0  0  0
  1 23  1  6  0  0  0
 24 25  1  0  0  0  0
  2 25  1  1  0  0  0
 26 27  2  0  0  0  0
 27 24  1  0  0  0  0
 26 28  1  0  0  0  0
 28 29  2  0  0  0  0
 28 30  1  0  0  0  0
 30 31  2  0  0  0  0
 31 32  1  0  0  0  0
 32 33  2  0  0  0  0
 33 29  1  0  0  0  0
 32 34  1  0  0  0  0
 33 35  1  0  0  0  0
 35 36  1  0  0  0  0
 24 37  2  0  0  0  0
 17 38  1  1  0  0  0
 38 39  2  0  0  0  0
 38 40  1  0  0  0  0
 22 41  1  1  0  0  0
  9 42  1  1  0  0  0
  5 43  1  1  0  0  0
  3 44  1  1  0  0  0
  3 45  1  6  0  0  0
 11 46  1  6  0  0  0
 22 47  1  6  0  0  0
 21 48  1  6  0  0  0
M  END
>  <cdx:fragmentId>
5

$$$$
