99468.cdx
  Mrv1902 05222410242D          

 30 32  0  0  0  0            999 V2000
    4.7739   -8.2209    0.0000 C   0  0  0  0  0  0  0  0  0  0  0  0
    6.2187   -9.0179    0.0000 O   0  0  0  0  0  0  0  0  0  0  0  0
    5.5124   -9.4443    0.0000 C   0  0  0  0  0  0  0  0  0  0  0  0
    4.7900   -9.0458    0.0000 C   0  0  0  0  0  0  0  0  0  0  0  0
    7.3550   -7.3036    0.0000 C   0  0  0  0  0  0  0  0  0  0  0  0
    8.1828   -8.7310    0.0000 O   0  0  0  0  0  0  0  0  0  0  0  0
    6.9439   -8.0189    0.0000 C   0  0  0  0  0  0  0  0  0  0  0  0
    7.3578   -8.7326    0.0000 C   0  0  0  0  0  0  0  0  0  0  0  0
    6.0229  -12.3053    0.0000 C   0  0  0  0  0  0  0  0  0  0  0  0
    5.4110  -11.5088    0.0000 C   0  0  0  0  0  0  0  0  0  0  0  0
    6.9495   -9.4455    0.0000 O   0  0  0  0  0  0  0  0  0  0  0  0
    5.5209  -10.2712    0.0000 O   0  0  0  0  0  0  0  0  0  0  0  0
    9.0923   -8.2069    0.0000 O   0  0  0  0  0  0  0  0  0  0  0  0
    9.8077  -10.2691    0.0000 C   0  0  0  0  0  0  0  0  0  0  0  0
    9.8073   -9.4441    0.0000 C   0  0  0  0  0  0  0  0  0  0  0  0
    9.0927   -9.0319    0.0000 C   0  0  0  0  0  0  0  0  0  0  0  0
    8.3784   -9.4448    0.0000 O   0  0  0  0  0  0  0  0  0  0  0  0
    8.3796  -11.9198    0.0000 C   0  0  0  0  0  0  0  0  0  0  0  0
    9.0939  -11.5069    0.0000 C   0  0  0  0  0  0  0  0  0  0  0  0
    9.0935  -10.6819    0.0000 C   0  0  0  0  0  0  0  0  0  0  0  0
    8.3788  -10.2698    0.0000 C   0  0  0  0  0  0  0  0  0  0  0  0
    7.6649  -11.5076    0.0000 C   0  0  0  0  0  0  0  0  0  0  0  0
    7.6645  -10.6826    0.0000 C   0  0  0  0  0  0  0  0  0  0  0  0
    6.9499  -10.2705    0.0000 C   0  0  0  0  0  0  0  0  0  0  0  0
    6.2356  -10.6833    0.0000 C   0  0  0  0  0  0  0  0  0  0  0  0
    6.2360  -11.5083    0.0000 C   0  0  0  0  0  0  0  0  0  0  0  0
    6.9507  -11.9205    0.0000 O   0  0  0  0  0  0  0  0  0  0  0  0
    6.1189   -8.0205    0.0000 C   0  0  0  0  0  0  0  0  0  0  0  0
    4.0837   -9.4721    0.0000 C   0  0  0  0  0  0  0  0  0  0  0  0
    5.4802   -7.7946    0.0000 C   0  0  0  0  0  0  0  0  0  0  0  0
  3 12  1  0  0  0  0
  4  1  1  0  0  0  0
  3  2  2  0  0  0  0
  4  3  1  0  0  0  0
  8 11  1  0  0  0  0
  7  5  1  0  0  0  0
  8  6  2  0  0  0  0
  8  7  1  0  0  0  0
 26  9  1  0  0  0  0
 26 10  1  0  0  0  0
 24 11  1  0  0  0  0
 25 12  1  0  0  0  0
 16 13  2  0  0  0  0
 14 20  1  0  0  0  0
 15 14  2  0  0  0  0
 16 15  1  0  0  0  0
 17 16  1  0  0  0  0
 21 17  1  0  0  0  0
 18 22  1  0  0  0  0
 19 18  2  0  0  0  0
 20 19  1  0  0  0  0
 21 20  2  0  0  0  0
 23 21  1  0  0  0  0
 22 27  1  0  0  0  0
 23 22  2  0  0  0  0
 24 23  1  0  0  0  0
 25 24  1  0  0  0  0
 26 25  1  0  0  0  0
 27 26  1  0  0  0  0
  7 28  1  0  0  0  0
  4 29  1  0  0  0  0
  1 30  1  0  0  0  0
M  END
>  <cdx:fragmentId>
5

$$$$
