99460.cdx
  Mrv1902 05222410212D          

 27 30  0  0  0  0            999 V2000
    7.6216   -7.7222    0.0000 C   0  0  1  0  0  0  0  0  0  0  0  0
    7.6216   -8.5472    0.0000 C   0  0  2  0  0  0  0  0  0  0  0  0
    6.9072   -8.9597    0.0000 C   0  0  0  0  0  0  0  0  0  0  0  0
    6.1927   -8.5472    0.0000 C   0  0  0  0  0  0  0  0  0  0  0  0
    5.4782   -8.9597    0.0000 C   0  0  0  0  0  0  0  0  0  0  0  0
    4.7638   -8.5472    0.0000 C   0  0  0  0  0  0  0  0  0  0  0  0
    4.7638   -7.7222    0.0000 C   0  0  0  0  0  0  0  0  0  0  0  0
    5.4782   -7.3097    0.0000 C   0  0  0  0  0  0  0  0  0  0  0  0
    6.1927   -7.7222    0.0000 C   0  0  0  0  0  0  0  0  0  0  0  0
    6.9072   -7.3097    0.0000 O   0  0  0  0  0  0  0  0  0  0  0  0
    8.3361   -8.9597    0.0000 O   0  0  0  0  0  0  0  0  0  0  0  0
    5.4782   -9.7847    0.0000 O   0  0  0  0  0  0  0  0  0  0  0  0
    4.0493   -7.3097    0.0000 O   0  0  0  0  0  0  0  0  0  0  0  0
    8.3361   -7.3097    0.0000 C   0  0  0  0  0  0  0  0  0  0  0  0
    8.3361   -6.4847    0.0000 C   0  0  0  0  0  0  0  0  0  0  0  0
    9.0506   -6.0722    0.0000 C   0  0  0  0  0  0  0  0  0  0  0  0
    9.7650   -6.4847    0.0000 C   0  0  0  0  0  0  0  0  0  0  0  0
    9.7650   -7.3097    0.0000 C   0  0  0  0  0  0  0  0  0  0  0  0
    9.0506   -7.7222    0.0000 C   0  0  0  0  0  0  0  0  0  0  0  0
   10.4795   -6.0722    0.0000 O   0  0  0  0  0  0  0  0  0  0  0  0
    6.9072   -9.7847    0.0000 S   0  0  0  0  0  0  0  0  0  0  0  0
    7.6216  -10.1972    0.0000 C   0  0  0  0  0  0  0  0  0  0  0  0
    7.6216  -11.0222    0.0000 C   0  0  0  0  0  0  0  0  0  0  0  0
    8.3361  -11.4347    0.0000 C   0  0  0  0  0  0  0  0  0  0  0  0
    9.0506  -11.0222    0.0000 C   0  0  0  0  0  0  0  0  0  0  0  0
    9.0506  -10.1972    0.0000 C   0  0  0  0  0  0  0  0  0  0  0  0
    8.3361   -9.7847    0.0000 C   0  0  0  0  0  0  0  0  0  0  0  0
  1  2  1  0  0  0  0
  2  3  1  0  0  0  0
  3  4  1  0  0  0  0
  4  5  1  0  0  0  0
  5  6  2  0  0  0  0
  6  7  1  0  0  0  0
  7  8  2  0  0  0  0
  8  9  1  0  0  0  0
  4  9  2  0  0  0  0
  9 10  1  0  0  0  0
  1 10  1  0  0  0  0
  2 11  1  1  0  0  0
  5 12  1  0  0  0  0
  7 13  1  0  0  0  0
 14 15  1  0  0  0  0
 15 16  2  0  0  0  0
 16 17  1  0  0  0  0
 17 18  2  0  0  0  0
 18 19  1  0  0  0  0
 14 19  2  0  0  0  0
 17 20  1  0  0  0  0
  1 14  1  1  0  0  0
  3 21  1  0  0  0  0
 21 22  1  0  0  0  0
 22 23  2  0  0  0  0
 23 24  1  0  0  0  0
 24 25  2  0  0  0  0
 25 26  1  0  0  0  0
 26 27  2  0  0  0  0
 27 22  1  0  0  0  0
M  END
>  <cdx:fragmentId>
5

$$$$
