99467.cdx
  Mrv1902 05222410232D          

 31 33  0  0  0  0            999 V2000
    5.4039   -7.8490    0.0000 C   0  0  0  0  0  0  0  0  0  0  0  0
    4.0276   -9.5431    0.0000 C   0  0  0  0  0  0  0  0  0  0  0  0
    4.7028   -8.2838    0.0000 C   0  0  0  0  0  0  0  0  0  0  0  0
    6.1570   -9.0634    0.0000 O   0  0  0  0  0  0  0  0  0  0  0  0
    5.4559   -9.4982    0.0000 C   0  0  0  0  0  0  0  0  0  0  0  0
    4.7288   -9.1084    0.0000 C   0  0  0  0  0  0  0  0  0  0  0  0
    6.8503   -6.6269    0.0000 C   0  0  0  0  0  0  0  0  0  0  0  0
    6.0453   -8.0672    0.0000 C   0  0  0  0  0  0  0  0  0  0  0  0
    7.2727   -7.3356    0.0000 C   0  0  0  0  0  0  0  0  0  0  0  0
    8.1175   -8.7529    0.0000 O   0  0  0  0  0  0  0  0  0  0  0  0
    6.8702   -8.0557    0.0000 C   0  0  0  0  0  0  0  0  0  0  0  0
    7.2926   -8.7644    0.0000 C   0  0  0  0  0  0  0  0  0  0  0  0
    6.0006  -12.3529    0.0000 C   0  0  0  0  0  0  0  0  0  0  0  0
    5.3792  -11.5637    0.0000 C   0  0  0  0  0  0  0  0  0  0  0  0
    6.8929   -9.4822    0.0000 O   0  0  0  0  0  0  0  0  0  0  0  0
    5.4743  -10.3249    0.0000 O   0  0  0  0  0  0  0  0  0  0  0  0
    9.0207   -8.2180    0.0000 O   0  0  0  0  0  0  0  0  0  0  0  0
    9.7608  -10.2714    0.0000 C   0  0  0  0  0  0  0  0  0  0  0  0
    9.7505   -9.4465    0.0000 C   0  0  0  0  0  0  0  0  0  0  0  0
    9.0310   -9.0430    0.0000 C   0  0  0  0  0  0  0  0  0  0  0  0
    8.3217   -9.4643    0.0000 O   0  0  0  0  0  0  0  0  0  0  0  0
    8.3526  -11.9391    0.0000 C   0  0  0  0  0  0  0  0  0  0  0  0
    9.0618  -11.5178    0.0000 C   0  0  0  0  0  0  0  0  0  0  0  0
    9.0515  -10.6928    0.0000 C   0  0  0  0  0  0  0  0  0  0  0  0
    8.3320  -10.2893    0.0000 C   0  0  0  0  0  0  0  0  0  0  0  0
    7.6330  -11.5356    0.0000 C   0  0  0  0  0  0  0  0  0  0  0  0
    7.6227  -10.7107    0.0000 C   0  0  0  0  0  0  0  0  0  0  0  0
    6.9032  -10.3071    0.0000 C   0  0  0  0  0  0  0  0  0  0  0  0
    6.1939  -10.7285    0.0000 C   0  0  0  0  0  0  0  0  0  0  0  0
    6.2042  -11.5534    0.0000 C   0  0  0  0  0  0  0  0  0  0  0  0
    6.9237  -11.9570    0.0000 O   0  0  0  0  0  0  0  0  0  0  0  0
  5 16  1  0  0  0  0
  3  1  1  0  0  0  0
  6  2  1  0  0  0  0
  6  3  1  0  0  0  0
  5  4  2  0  0  0  0
  6  5  1  0  0  0  0
 12 15  1  0  0  0  0
  9  7  1  0  0  0  0
 11  8  1  0  0  0  0
 11  9  1  0  0  0  0
 12 10  2  0  0  0  0
 12 11  1  0  0  0  0
 30 13  1  0  0  0  0
 30 14  1  0  0  0  0
 28 15  1  0  0  0  0
 29 16  1  0  0  0  0
 20 17  2  0  0  0  0
 18 24  1  0  0  0  0
 19 18  2  0  0  0  0
 20 19  1  0  0  0  0
 21 20  1  0  0  0  0
 25 21  1  0  0  0  0
 22 26  1  0  0  0  0
 23 22  2  0  0  0  0
 24 23  1  0  0  0  0
 25 24  2  0  0  0  0
 27 25  1  0  0  0  0
 26 31  1  0  0  0  0
 27 26  2  0  0  0  0
 28 27  1  0  0  0  0
 29 28  1  0  0  0  0
 30 29  1  0  0  0  0
 31 30  1  0  0  0  0
M  END
>  <cdx:fragmentId>
5

$$$$
