99466.cdx
  Mrv1902 05222410222D          

 15 17  0  0  0  0            999 V2000
    7.2737   -9.7036    0.0000 N   0  0  0  0  0  0  0  0  0  0  0  0
    7.9882   -9.2911    0.0000 C   0  0  0  0  0  0  0  0  0  0  0  0
    7.9882   -8.4661    0.0000 N   0  0  0  0  0  0  0  0  0  0  0  0
    7.2737   -8.0536    0.0000 C   0  0  0  0  0  0  0  0  0  0  0  0
    6.5593   -8.4661    0.0000 C   0  0  0  0  0  0  0  0  0  0  0  0
    5.8448   -8.0536    0.0000 C   0  0  0  0  0  0  0  0  0  0  0  0
    5.1303   -8.4661    0.0000 C   0  0  0  0  0  0  0  0  0  0  0  0
    5.1303   -9.2911    0.0000 C   0  0  0  0  0  0  0  0  0  0  0  0
    5.8448   -9.7036    0.0000 C   0  0  0  0  0  0  0  0  0  0  0  0
    6.5593   -9.2911    0.0000 C   0  0  0  0  0  0  0  0  0  0  0  0
    8.7728   -9.5460    0.0000 C   0  0  0  0  0  0  0  0  0  0  0  0
    9.2577   -8.8786    0.0000 C   0  0  0  0  0  0  0  0  0  0  0  0
    8.7728   -8.2112    0.0000 C   0  0  0  0  0  0  0  0  0  0  0  0
    7.2737   -7.2286    0.0000 O   0  0  0  0  0  0  0  0  0  0  0  0
    4.4158   -8.0536    0.0000 O   0  0  0  0  0  0  0  0  0  0  0  0
  1  2  2  0  0  0  0
  2  3  1  0  0  0  0
  3  4  1  0  0  0  0
  4  5  1  0  0  0  0
  5  6  1  0  0  0  0
  6  7  2  0  0  0  0
  7  8  1  0  0  0  0
  8  9  2  0  0  0  0
  9 10  1  0  0  0  0
  1 10  1  0  0  0  0
  5 10  2  0  0  0  0
 11 12  1  0  0  0  0
 12 13  1  0  0  0  0
 11  2  1  0  0  0  0
 13  3  1  0  0  0  0
  4 14  2  0  0  0  0
  7 15  1  0  0  0  0
M  END
>  <cdx:fragmentId>
5

$$$$
