99463.cdx
  Mrv1902 05222410202D          

 40 44  0  0  0  0            999 V2000
    6.5629   -7.6810    0.0000 C   0  0  1  0  0  0  0  0  0  0  0  0
    6.5629   -8.5060    0.0000 C   0  0  2  0  0  0  0  0  0  0  0  0
    5.8484   -8.9185    0.0000 C   0  0  0  0  0  0  0  0  0  0  0  0
    5.1339   -8.5060    0.0000 C   0  0  0  0  0  0  0  0  0  0  0  0
    4.4195   -8.9185    0.0000 C   0  0  0  0  0  0  0  0  0  0  0  0
    3.7050   -8.5060    0.0000 C   0  0  0  0  0  0  0  0  0  0  0  0
    3.7050   -7.6810    0.0000 C   0  0  0  0  0  0  0  0  0  0  0  0
    4.4195   -7.2685    0.0000 C   0  0  0  0  0  0  0  0  0  0  0  0
    5.1339   -7.6810    0.0000 C   0  0  0  0  0  0  0  0  0  0  0  0
    5.8484   -7.2685    0.0000 O   0  0  0  0  0  0  0  0  0  0  0  0
    7.2774   -8.9185    0.0000 O   0  0  0  0  0  0  0  0  0  0  0  0
    4.4195   -9.7435    0.0000 O   0  0  0  0  0  0  0  0  0  0  0  0
    2.9905   -7.2685    0.0000 O   0  0  0  0  0  0  0  0  0  0  0  0
    7.2774   -7.2685    0.0000 C   0  0  0  0  0  0  0  0  0  0  0  0
    7.9918   -7.6810    0.0000 C   0  0  0  0  0  0  0  0  0  0  0  0
    8.7063   -7.2685    0.0000 C   0  0  0  0  0  0  0  0  0  0  0  0
    8.7063   -6.4435    0.0000 C   0  0  0  0  0  0  0  0  0  0  0  0
    7.9918   -6.0310    0.0000 C   0  0  0  0  0  0  0  0  0  0  0  0
    7.2774   -6.4435    0.0000 C   0  0  0  0  0  0  0  0  0  0  0  0
    7.9918   -5.2060    0.0000 O   0  0  0  0  0  0  0  0  0  0  0  0
    9.4208   -6.0310    0.0000 O   0  0  0  0  0  0  0  0  0  0  0  0
    9.4208   -7.6810    0.0000 O   0  0  0  0  0  0  0  0  0  0  0  0
    5.8484   -9.7435    0.0000 S   0  0  0  0  0  0  0  0  0  0  0  0
    6.5629  -10.1560    0.0000 C   0  0  0  0  0  0  0  0  0  0  0  0
    6.5629  -10.9810    0.0000 C   0  0  0  0  0  0  0  0  0  0  0  0
    7.2774  -11.3935    0.0000 C   0  0  0  0  0  0  0  0  0  0  0  0
    7.9918  -10.9810    0.0000 C   0  0  0  0  0  0  0  0  0  0  0  0
    7.9918  -10.1560    0.0000 C   0  0  0  0  0  0  0  0  0  0  0  0
    7.2774   -9.7435    0.0000 C   0  0  0  0  0  0  0  0  0  0  0  0
    9.5612   -9.4973    0.0000 C   0  0  0  0  0  0  0  0  0  0  0  0
    8.7385   -9.5587    0.0000 C   0  0  0  0  0  0  0  0  0  0  0  0
    8.3803  -10.3019    0.0000 C   0  0  0  0  0  0  0  0  0  0  0  0
    8.8449  -10.9837    0.0000 C   0  0  0  0  0  0  0  0  0  0  0  0
    9.6676  -10.9222    0.0000 C   0  0  0  0  0  0  0  0  0  0  0  0
   10.0258  -10.1790    0.0000 C   0  0  0  0  0  0  0  0  0  0  0  0
    8.2739   -8.8769    0.0000 C   0  0  0  0  0  0  0  0  0  0  0  0
    8.6321   -8.1337    0.0000 O   0  0  0  0  0  0  0  0  0  0  0  0
   10.8485  -10.1176    0.0000 O   0  0  0  0  0  0  0  0  0  0  0  0
   10.1322  -11.6040    0.0000 O   0  0  0  0  0  0  0  0  0  0  0  0
    8.4867  -11.7269    0.0000 O   0  0  0  0  0  0  0  0  0  0  0  0
  1  2  1  0  0  0  0
  2  3  1  0  0  0  0
  3  4  1  0  0  0  0
  4  5  1  0  0  0  0
  5  6  2  0  0  0  0
  6  7  1  0  0  0  0
  7  8  2  0  0  0  0
  8  9  1  0  0  0  0
  4  9  2  0  0  0  0
  9 10  1  0  0  0  0
  1 10  1  0  0  0  0
  2 11  1  1  0  0  0
  5 12  1  0  0  0  0
  7 13  1  0  0  0  0
 14 15  1  0  0  0  0
 15 16  2  0  0  0  0
 16 17  1  0  0  0  0
 17 18  2  0  0  0  0
 18 19  1  0  0  0  0
 14 19  2  0  0  0  0
 18 20  1  0  0  0  0
 17 21  1  0  0  0  0
 16 22  1  0  0  0  0
  1 14  1  1  0  0  0
  3 23  1  0  0  0  0
 23 24  1  0  0  0  0
 24 25  2  0  0  0  0
 25 26  1  0  0  0  0
 26 27  2  0  0  0  0
 27 28  1  0  0  0  0
 28 29  2  0  0  0  0
 29 24  1  0  0  0  0
 30 31  2  0  0  0  0
 31 32  1  0  0  0  0
 32 33  2  0  0  0  0
 33 34  1  0  0  0  0
 34 35  2  0  0  0  0
 35 30  1  0  0  0  0
 31 36  1  0  0  0  0
 36 37  2  0  0  0  0
 35 38  1  0  0  0  0
 34 39  1  0  0  0  0
 33 40  1  0  0  0  0
 11 36  1  0  0  0  0
M  END
>  <cdx:fragmentId>
5

$$$$
