99469.cdx
  Mrv1902 05222410242D          

 29 31  0  0  0  0            999 V2000
    4.0713   -8.1169    0.0000 C   0  0  0  0  0  0  0  0  0  0  0  0
    4.8044   -8.4952    0.0000 C   0  0  0  0  0  0  0  0  0  0  0  0
    4.8433   -9.3193    0.0000 C   0  0  0  0  0  0  0  0  0  0  0  0
    5.5765   -9.6977    0.0000 C   0  0  0  0  0  0  0  0  0  0  0  0
    7.0427  -10.4543    0.0000 O   0  0  0  0  0  0  0  0  0  0  0  0
    6.3485  -10.9001    0.0000 C   0  0  0  0  0  0  0  0  0  0  0  0
    5.6154  -10.5217    0.0000 C   0  0  0  0  0  0  0  0  0  0  0  0
    8.9981  -10.1131    0.0000 O   0  0  0  0  0  0  0  0  0  0  0  0
    7.7400   -9.4356    0.0000 C   0  0  0  0  0  0  0  0  0  0  0  0
    8.1735  -10.1376    0.0000 C   0  0  0  0  0  0  0  0  0  0  0  0
    6.9380  -13.7459    0.0000 C   0  0  0  0  0  0  0  0  0  0  0  0
    6.3043  -12.9666    0.0000 C   0  0  0  0  0  0  0  0  0  0  0  0
    7.7851  -10.8615    0.0000 O   0  0  0  0  0  0  0  0  0  0  0  0
    6.3799  -11.7265    0.0000 O   0  0  0  0  0  0  0  0  0  0  0  0
    9.8928   -9.5641    0.0000 O   0  0  0  0  0  0  0  0  0  0  0  0
   10.6651  -11.6057    0.0000 C   0  0  0  0  0  0  0  0  0  0  0  0
   10.6418  -10.7810    0.0000 C   0  0  0  0  0  0  0  0  0  0  0  0
    9.9160  -10.3888    0.0000 C   0  0  0  0  0  0  0  0  0  0  0  0
    9.2134  -10.8213    0.0000 O   0  0  0  0  0  0  0  0  0  0  0  0
    9.2832  -13.2953    0.0000 C   0  0  0  0  0  0  0  0  0  0  0  0
    9.9857  -12.8628    0.0000 C   0  0  0  0  0  0  0  0  0  0  0  0
    9.9625  -12.0382    0.0000 C   0  0  0  0  0  0  0  0  0  0  0  0
    9.2367  -11.6459    0.0000 C   0  0  0  0  0  0  0  0  0  0  0  0
    8.5574  -12.9031    0.0000 C   0  0  0  0  0  0  0  0  0  0  0  0
    8.5341  -12.0784    0.0000 C   0  0  0  0  0  0  0  0  0  0  0  0
    7.8083  -11.6862    0.0000 C   0  0  0  0  0  0  0  0  0  0  0  0
    7.1057  -12.1187    0.0000 C   0  0  0  0  0  0  0  0  0  0  0  0
    7.1290  -12.9433    0.0000 C   0  0  0  0  0  0  0  0  0  0  0  0
    7.8548  -13.3355    0.0000 O   0  0  0  0  0  0  0  0  0  0  0  0
  2  1  1  0  0  0  0
  3  2  1  0  0  0  0
  4  3  1  0  0  0  0
  6 14  1  0  0  0  0
  7  4  1  0  0  0  0
  6  5  2  0  0  0  0
  7  6  1  0  0  0  0
 10 13  1  0  0  0  0
 10  8  2  0  0  0  0
 10  9  1  0  0  0  0
 28 11  1  0  0  0  0
 28 12  1  0  0  0  0
 26 13  1  0  0  0  0
 27 14  1  0  0  0  0
 18 15  2  0  0  0  0
 16 22  1  0  0  0  0
 17 16  2  0  0  0  0
 18 17  1  0  0  0  0
 19 18  1  0  0  0  0
 23 19  1  0  0  0  0
 20 24  1  0  0  0  0
 21 20  2  0  0  0  0
 22 21  1  0  0  0  0
 23 22  2  0  0  0  0
 25 23  1  0  0  0  0
 24 29  1  0  0  0  0
 25 24  2  0  0  0  0
 26 25  1  0  0  0  0
 27 26  1  0  0  0  0
 28 27  1  0  0  0  0
 29 28  1  0  0  0  0
M  END
>  <cdx:fragmentId>
5

$$$$
