99472.cdx
  Mrv1902 05222410222D          

 30 32  0  0  0  0            999 V2000
    4.5516   -8.9366    0.0000 C   0  0  0  0  0  0  0  0  0  0  0  0
    5.9965   -9.7334    0.0000 O   0  0  0  0  0  0  0  0  0  0  0  0
    5.2902  -10.1598    0.0000 C   0  0  0  0  0  0  0  0  0  0  0  0
    4.5678   -9.7614    0.0000 C   0  0  0  0  0  0  0  0  0  0  0  0
    7.9605   -9.4463    0.0000 O   0  0  0  0  0  0  0  0  0  0  0  0
    6.7216   -8.7343    0.0000 C   0  0  0  0  0  0  0  0  0  0  0  0
    7.1355   -9.4480    0.0000 C   0  0  0  0  0  0  0  0  0  0  0  0
    5.8010  -13.0209    0.0000 C   0  0  0  0  0  0  0  0  0  0  0  0
    5.1890  -12.2243    0.0000 C   0  0  0  0  0  0  0  0  0  0  0  0
    6.7273  -10.1609    0.0000 O   0  0  0  0  0  0  0  0  0  0  0  0
    5.2988  -10.9868    0.0000 O   0  0  0  0  0  0  0  0  0  0  0  0
    8.8700   -8.9222    0.0000 O   0  0  0  0  0  0  0  0  0  0  0  0
    9.5857  -10.9842    0.0000 C   0  0  0  0  0  0  0  0  0  0  0  0
    9.5852  -10.1592    0.0000 C   0  0  0  0  0  0  0  0  0  0  0  0
    8.8704   -9.7472    0.0000 C   0  0  0  0  0  0  0  0  0  0  0  0
    8.1562  -10.1601    0.0000 O   0  0  0  0  0  0  0  0  0  0  0  0
    8.1577  -12.6351    0.0000 C   0  0  0  0  0  0  0  0  0  0  0  0
    8.8719  -12.2222    0.0000 C   0  0  0  0  0  0  0  0  0  0  0  0
    8.8714  -11.3972    0.0000 C   0  0  0  0  0  0  0  0  0  0  0  0
    8.1567  -10.9851    0.0000 C   0  0  0  0  0  0  0  0  0  0  0  0
    7.4430  -12.2230    0.0000 C   0  0  0  0  0  0  0  0  0  0  0  0
    7.4425  -11.3980    0.0000 C   0  0  0  0  0  0  0  0  0  0  0  0
    6.7278  -10.9859    0.0000 C   0  0  0  0  0  0  0  0  0  0  0  0
    6.0135  -11.3989    0.0000 C   0  0  0  0  0  0  0  0  0  0  0  0
    6.0140  -12.2239    0.0000 C   0  0  0  0  0  0  0  0  0  0  0  0
    6.7287  -12.6359    0.0000 O   0  0  0  0  0  0  0  0  0  0  0  0
    7.1326   -8.0190    0.0000 C   0  0  0  0  0  0  0  0  0  0  0  0
    5.8966   -8.7360    0.0000 C   0  0  0  0  0  0  0  0  0  0  0  0
    3.8292   -8.5382    0.0000 C   0  0  0  0  0  0  0  0  0  0  0  0
    5.2579   -8.5102    0.0000 C   0  0  0  0  0  0  0  0  0  0  0  0
  3 11  1  0  0  0  0
  4  1  1  0  0  0  0
  3  2  2  0  0  0  0
  4  3  1  0  0  0  0
  7 10  1  0  0  0  0
  7  5  2  0  0  0  0
  7  6  1  0  0  0  0
 25  8  1  0  0  0  0
 25  9  1  0  0  0  0
 23 10  1  0  0  0  0
 24 11  1  0  0  0  0
 15 12  2  0  0  0  0
 13 19  1  0  0  0  0
 14 13  2  0  0  0  0
 15 14  1  0  0  0  0
 16 15  1  0  0  0  0
 20 16  1  0  0  0  0
 17 21  1  0  0  0  0
 18 17  2  0  0  0  0
 19 18  1  0  0  0  0
 20 19  2  0  0  0  0
 22 20  1  0  0  0  0
 21 26  1  0  0  0  0
 22 21  2  0  0  0  0
 23 22  1  0  0  0  0
 24 23  1  0  0  0  0
 25 24  1  0  0  0  0
 26 25  1  0  0  0  0
  6 27  1  0  0  0  0
  6 28  1  0  0  0  0
  1 29  1  0  0  0  0
  1 30  1  0  0  0  0
M  END
>  <cdx:fragmentId>
5

$$$$
