99475.cdx
  Mrv1902 05222410212D          

 29 31  0  0  0  0            999 V2000
    4.7999   -5.6904    0.0000 C   0  0  0  0  0  0  0  0  0  0  0  0
    5.4943  -10.2458    0.0000 O   0  0  0  0  0  0  0  0  0  0  0  0
    4.2132   -9.6175    0.0000 C   0  0  0  0  0  0  0  0  0  0  0  0
    4.6695  -10.3049    0.0000 C   0  0  0  0  0  0  0  0  0  0  0  0
    4.3023  -11.0437    0.0000 O   0  0  0  0  0  0  0  0  0  0  0  0
    4.7954   -6.5154    0.0000 C   0  0  0  0  0  0  0  0  0  0  0  0
    6.9193   -9.4140    0.0000 O   0  0  0  0  0  0  0  0  0  0  0  0
    6.2107   -8.9982    0.0000 C   0  0  0  0  0  0  0  0  0  0  0  0
    6.2152   -8.1732    0.0000 C   0  0  0  0  0  0  0  0  0  0  0  0
    5.4939   -9.4067    0.0000 O   0  0  0  0  0  0  0  0  0  0  0  0
    6.0050  -12.2778    0.0000 C   0  0  0  0  0  0  0  0  0  0  0  0
    5.3897  -11.4838    0.0000 C   0  0  0  0  0  0  0  0  0  0  0  0
    5.5030   -7.7568    0.0000 C   0  0  0  0  0  0  0  0  0  0  0  0
    9.0567   -8.1662    0.0000 O   0  0  0  0  0  0  0  0  0  0  0  0
    9.7811  -10.2253    0.0000 C   0  0  0  0  0  0  0  0  0  0  0  0
    9.7771   -9.4003    0.0000 C   0  0  0  0  0  0  0  0  0  0  0  0
    9.0607   -8.9912    0.0000 C   0  0  0  0  0  0  0  0  0  0  0  0
    8.3482   -9.4071    0.0000 O   0  0  0  0  0  0  0  0  0  0  0  0
    8.3601  -11.8821    0.0000 C   0  0  0  0  0  0  0  0  0  0  0  0
    9.0726  -11.4662    0.0000 C   0  0  0  0  0  0  0  0  0  0  0  0
    9.0686  -10.6412    0.0000 C   0  0  0  0  0  0  0  0  0  0  0  0
    8.3522  -10.2321    0.0000 C   0  0  0  0  0  0  0  0  0  0  0  0
    7.6436  -11.4730    0.0000 C   0  0  0  0  0  0  0  0  0  0  0  0
    7.6397  -10.6480    0.0000 C   0  0  0  0  0  0  0  0  0  0  0  0
    6.9232  -10.2390    0.0000 C   0  0  0  0  0  0  0  0  0  0  0  0
    6.2108  -10.6549    0.0000 C   0  0  0  0  0  0  0  0  0  0  0  0
    6.2147  -11.4799    0.0000 C   0  0  0  0  0  0  0  0  0  0  0  0
    6.9312  -11.8890    0.0000 O   0  0  0  0  0  0  0  0  0  0  0  0
    5.5076   -6.9318    0.0000 C   0  0  0  0  0  0  0  0  0  0  0  0
  6  1  1  0  0  0  0
  3  4  1  0  0  0  0
  4  5  2  0  0  0  0
 29  6  1  0  0  0  0
  8  9  1  0  0  0  0
  8 10  2  0  0  0  0
 27 11  1  0  0  0  0
 27 12  1  0  0  0  0
 25  7  1  0  0  0  0
 26  2  1  0  0  0  0
  4  2  1  0  0  0  0
 17 14  2  0  0  0  0
 15 21  1  0  0  0  0
 16 15  2  0  0  0  0
 17 16  1  0  0  0  0
 18 17  1  0  0  0  0
 22 18  1  0  0  0  0
 19 23  1  0  0  0  0
 20 19  2  0  0  0  0
 21 20  1  0  0  0  0
 22 21  2  0  0  0  0
 24 22  1  0  0  0  0
 23 28  1  0  0  0  0
 24 23  2  0  0  0  0
 25 24  1  0  0  0  0
 26 25  1  0  0  0  0
 27 26  1  0  0  0  0
 28 27  1  0  0  0  0
  9 13  1  0  0  0  0
  8  7  1  0  0  0  0
 13 29  1  0  0  0  0
M  END
>  <cdx:fragmentId>
5

$$$$
