99473.cdx
  Mrv1902 05222410232D          

 31 33  0  0  0  0            999 V2000
    4.0815   -9.5261    0.0000 C   0  0  0  0  0  0  0  0  0  0  0  0
    6.9185   -6.6238    0.0000 C   0  0  0  0  0  0  0  0  0  0  0  0
    8.1624   -7.3271    0.0000 C   0  0  0  0  0  0  0  0  0  0  0  0
    5.4661   -7.8388    0.0000 C   0  0  0  0  0  0  0  0  0  0  0  0
    4.7629   -8.2701    0.0000 C   0  0  0  0  0  0  0  0  0  0  0  0
    6.2132   -9.0568    0.0000 O   0  0  0  0  0  0  0  0  0  0  0  0
    5.5099   -9.4882    0.0000 C   0  0  0  0  0  0  0  0  0  0  0  0
    4.7848   -9.0948    0.0000 C   0  0  2  0  0  0  0  0  0  0  0  0
    7.3374   -7.3346    0.0000 C   0  0  0  0  0  0  0  0  0  0  0  0
    8.1752   -8.7560    0.0000 O   0  0  0  0  0  0  0  0  0  0  0  0
    6.9314   -8.0527    0.0000 C   0  0  0  0  0  0  0  0  0  0  0  0
    7.3503   -8.7634    0.0000 C   0  0  0  0  0  0  0  0  0  0  0  0
    6.0406  -12.3456    0.0000 C   0  0  0  0  0  0  0  0  0  0  0  0
    5.4232  -11.5533    0.0000 C   0  0  0  0  0  0  0  0  0  0  0  0
    6.9470   -9.4792    0.0000 O   0  0  0  0  0  0  0  0  0  0  0  0
    5.5243  -10.3150    0.0000 O   0  0  0  0  0  0  0  0  0  0  0  0
    9.0810   -8.2256    0.0000 O   0  0  0  0  0  0  0  0  0  0  0  0
    9.8110  -10.2826    0.0000 C   0  0  0  0  0  0  0  0  0  0  0  0
    9.8048   -9.4576    0.0000 C   0  0  0  0  0  0  0  0  0  0  0  0
    9.0872   -9.0506    0.0000 C   0  0  0  0  0  0  0  0  0  0  0  0
    8.3759   -9.4684    0.0000 O   0  0  0  0  0  0  0  0  0  0  0  0
    8.3946  -11.9434    0.0000 C   0  0  0  0  0  0  0  0  0  0  0  0
    9.1059  -11.5255    0.0000 C   0  0  0  0  0  0  0  0  0  0  0  0
    9.0997  -10.7005    0.0000 C   0  0  0  0  0  0  0  0  0  0  0  0
    8.3821  -10.2934    0.0000 C   0  0  0  0  0  0  0  0  0  0  0  0
    7.6770  -11.5363    0.0000 C   0  0  0  0  0  0  0  0  0  0  0  0
    7.6708  -10.7113    0.0000 C   0  0  0  0  0  0  0  0  0  0  0  0
    6.9532  -10.3042    0.0000 C   0  0  1  0  0  0  0  0  0  0  0  0
    6.2419  -10.7221    0.0000 C   0  0  1  0  0  0  0  0  0  0  0  0
    6.2481  -11.5471    0.0000 C   0  0  0  0  0  0  0  0  0  0  0  0
    6.9657  -11.9542    0.0000 O   0  0  0  0  0  0  0  0  0  0  0  0
  8  1  1  6  0  0  0
  9  2  1  0  0  0  0
  9  3  1  0  0  0  0
  5  4  1  0  0  0  0
  7 16  1  0  0  0  0
  8  5  1  0  0  0  0
  7  6  2  0  0  0  0
  8  7  1  0  0  0  0
 12 15  1  0  0  0  0
 11  9  1  0  0  0  0
 12 10  2  0  0  0  0
 12 11  1  0  0  0  0
 30 13  1  0  0  0  0
 30 14  1  0  0  0  0
 28 15  1  1  0  0  0
 29 16  1  1  0  0  0
 20 17  2  0  0  0  0
 18 24  1  0  0  0  0
 19 18  2  0  0  0  0
 20 19  1  0  0  0  0
 21 20  1  0  0  0  0
 25 21  1  0  0  0  0
 22 26  1  0  0  0  0
 23 22  2  0  0  0  0
 24 23  1  0  0  0  0
 25 24  2  0  0  0  0
 27 25  1  0  0  0  0
 26 31  1  0  0  0  0
 27 26  2  0  0  0  0
 28 27  1  0  0  0  0
 29 28  1  0  0  0  0
 30 29  1  0  0  0  0
 31 30  1  0  0  0  0
M  END
>  <cdx:fragmentId>
5

$$$$
