99476.cdx
  Mrv1902 05222410212D          

 31 33  0  0  0  0            999 V2000
    4.0062   -6.0912    0.0000 C   0  0  0  0  0  0  0  0  0  0  0  0
    4.0062   -6.9162    0.0000 C   0  0  0  0  0  0  0  0  0  0  0  0
    4.7206   -7.3287    0.0000 C   0  0  0  0  0  0  0  0  0  0  0  0
    5.4351   -6.9162    0.0000 C   0  0  0  0  0  0  0  0  0  0  0  0
    5.4351   -6.0912    0.0000 C   0  0  0  0  0  0  0  0  0  0  0  0
    4.7206   -5.6788    0.0000 C   0  0  0  0  0  0  0  0  0  0  0  0
    6.1496   -7.3287    0.0000 O   0  0  0  0  0  0  0  0  0  0  0  0
    6.8641   -6.9162    0.0000 C   0  0  0  0  0  0  0  0  0  0  0  0
    6.8641   -6.0912    0.0000 C   0  0  0  0  0  0  0  0  0  0  0  0
    6.1496   -5.6788    0.0000 C   0  0  0  0  0  0  0  0  0  0  0  0
    3.3931   -7.4683    0.0000 O   0  0  0  0  0  0  0  0  0  0  0  0
    3.7286   -8.2220    0.0000 C   0  0  1  0  0  0  0  0  0  0  0  0
    4.5491   -8.1357    0.0000 C   0  0  2  0  0  0  0  0  0  0  0  0
    7.5785   -7.3287    0.0000 O   0  0  0  0  0  0  0  0  0  0  0  0
    3.3161   -8.9364    0.0000 C   0  0  0  0  0  0  0  0  0  0  0  0
    2.6017   -8.5239    0.0000 C   0  0  0  0  0  0  0  0  0  0  0  0
    2.9036   -9.6509    0.0000 O   0  0  0  0  0  0  0  0  0  0  0  0
    4.0306   -9.3489    0.0000 C   0  0  0  0  0  0  0  0  0  0  0  0
    5.1012   -8.7488    0.0000 O   0  0  0  0  0  0  0  0  0  0  0  0
    5.8094   -9.1719    0.0000 C   0  0  0  0  0  0  0  0  0  0  0  0
    5.7972   -9.9968    0.0000 O   0  0  0  0  0  0  0  0  0  0  0  0
    6.5299   -8.7700    0.0000 C   0  0  0  0  0  0  0  0  0  0  0  0
    7.2382   -9.1931    0.0000 C   0  0  0  0  0  0  0  0  0  0  0  0
    7.9587   -8.7912    0.0000 C   0  0  0  0  0  0  0  0  0  0  0  0
    8.6670   -9.2143    0.0000 C   0  0  0  0  0  0  0  0  0  0  0  0
    9.3875   -8.8124    0.0000 C   0  0  0  0  0  0  0  0  0  0  0  0
   10.0958   -9.2355    0.0000 C   0  0  0  0  0  0  0  0  0  0  0  0
   10.8163   -8.8336    0.0000 C   0  0  0  0  0  0  0  0  0  0  0  0
   11.5246   -9.2567    0.0000 C   0  0  0  0  0  0  0  0  0  0  0  0
   12.2451   -8.8548    0.0000 C   0  0  0  0  0  0  0  0  0  0  0  0
    2.9082   -8.3082    0.0000 H   0  0  0  0  0  0  0  0  0  0  0  0
  1  2  2  0  0  0  0
  2  3  1  0  0  0  0
  3  4  2  0  0  0  0
  4  5  1  0  0  0  0
  5  6  2  0  0  0  0
  6  1  1  0  0  0  0
  4  7  1  0  0  0  0
  7  8  1  0  0  0  0
  8  9  1  0  0  0  0
  9 10  2  0  0  0  0
 10  5  1  0  0  0  0
  2 11  1  0  0  0  0
 11 12  1  0  0  0  0
 12 13  1  0  0  0  0
 13  3  1  0  0  0  0
  8 14  2  0  0  0  0
 12 15  1  0  0  0  0
 15 16  1  0  0  0  0
 15 17  1  0  0  0  0
 15 18  1  0  0  0  0
 13 19  1  1  0  0  0
 19 20  1  0  0  0  0
 20 21  2  0  0  0  0
 20 22  1  0  0  0  0
 22 23  1  0  0  0  0
 23 24  1  0  0  0  0
 24 25  1  0  0  0  0
 25 26  1  0  0  0  0
 26 27  1  0  0  0  0
 27 28  1  0  0  0  0
 28 29  1  0  0  0  0
 29 30  1  0  0  0  0
 12 31  1  6  0  0  0
M  END
>  <cdx:fragmentId>
5

$$$$
