99474.cdx
  Mrv1902 05222410212D          

 31 33  0  0  0  0            999 V2000
    6.9538   -7.8299    0.0000 C   0  0  0  0  0  0  0  0  0  0  0  0
    2.6686  -10.2899    0.0000 C   0  0  0  0  0  0  0  0  0  0  0  0
    5.5243  -10.3150    0.0000 O   0  0  0  0  0  0  0  0  0  0  0  0
    4.0975  -10.3062    0.0000 C   0  0  0  0  0  0  0  0  0  0  0  0
    4.8072  -10.7269    0.0000 C   0  0  0  0  0  0  0  0  0  0  0  0
    4.7978  -11.5518    0.0000 O   0  0  0  0  0  0  0  0  0  0  0  0
    3.3784  -10.7105    0.0000 C   0  0  0  0  0  0  0  0  0  0  0  0
    6.9470   -9.4792    0.0000 O   0  0  0  0  0  0  0  0  0  0  0  0
    6.2369   -9.0660    0.0000 C   0  0  0  0  0  0  0  0  0  0  0  0
    6.2385   -8.2410    0.0000 C   0  0  0  0  0  0  0  0  0  0  0  0
    5.5216   -9.4771    0.0000 O   0  0  0  0  0  0  0  0  0  0  0  0
    5.5249   -7.8271    0.0000 C   0  0  0  0  0  0  0  0  0  0  0  0
    6.0406  -12.3456    0.0000 C   0  0  0  0  0  0  0  0  0  0  0  0
    5.4232  -11.5533    0.0000 C   0  0  0  0  0  0  0  0  0  0  0  0
    9.0810   -8.2256    0.0000 O   0  0  0  0  0  0  0  0  0  0  0  0
    9.8110  -10.2826    0.0000 C   0  0  0  0  0  0  0  0  0  0  0  0
    9.8048   -9.4576    0.0000 C   0  0  0  0  0  0  0  0  0  0  0  0
    9.0872   -9.0506    0.0000 C   0  0  0  0  0  0  0  0  0  0  0  0
    8.3759   -9.4684    0.0000 O   0  0  0  0  0  0  0  0  0  0  0  0
    8.3946  -11.9434    0.0000 C   0  0  0  0  0  0  0  0  0  0  0  0
    9.1059  -11.5255    0.0000 C   0  0  0  0  0  0  0  0  0  0  0  0
    9.0997  -10.7005    0.0000 C   0  0  0  0  0  0  0  0  0  0  0  0
    8.3821  -10.2934    0.0000 C   0  0  0  0  0  0  0  0  0  0  0  0
    7.6770  -11.5363    0.0000 C   0  0  0  0  0  0  0  0  0  0  0  0
    7.6708  -10.7113    0.0000 C   0  0  0  0  0  0  0  0  0  0  0  0
    6.9532  -10.3042    0.0000 C   0  0  1  0  0  0  0  0  0  0  0  0
    6.2419  -10.7221    0.0000 C   0  0  1  0  0  0  0  0  0  0  0  0
    6.2481  -11.5471    0.0000 C   0  0  0  0  0  0  0  0  0  0  0  0
    6.9657  -11.9542    0.0000 O   0  0  0  0  0  0  0  0  0  0  0  0
    5.5265   -7.0021    0.0000 C   0  0  0  0  0  0  0  0  0  0  0  0
    3.3689  -11.5355    0.0000 C   0  0  0  0  0  0  0  0  0  0  0  0
 10  1  1  0  0  0  0
  7  2  1  0  0  0  0
  4  5  1  0  0  0  0
  5  6  2  0  0  0  0
  4  7  1  0  0  0  0
  9 10  1  0  0  0  0
  9 11  2  0  0  0  0
 10 12  1  0  0  0  0
 28 13  1  0  0  0  0
 28 14  1  0  0  0  0
 26  8  1  1  0  0  0
  9  8  1  0  0  0  0
 27  3  1  1  0  0  0
  5  3  1  0  0  0  0
 18 15  2  0  0  0  0
 16 22  1  0  0  0  0
 17 16  2  0  0  0  0
 18 17  1  0  0  0  0
 19 18  1  0  0  0  0
 23 19  1  0  0  0  0
 20 24  1  0  0  0  0
 21 20  2  0  0  0  0
 22 21  1  0  0  0  0
 23 22  2  0  0  0  0
 25 23  1  0  0  0  0
 24 29  1  0  0  0  0
 25 24  2  0  0  0  0
 26 25  1  0  0  0  0
 27 26  1  0  0  0  0
 28 27  1  0  0  0  0
 29 28  1  0  0  0  0
 12 30  1  0  0  0  0
  7 31  1  0  0  0  0
M  END
>  <cdx:fragmentId>
5

$$$$
