99479.cdx
  Mrv1902 05222410252D          

 43 49  0  0  0  0            999 V2000
    6.0137   -8.5388    0.0000 C   0  0  0  0  0  0  0  0  0  0  0  0
    6.0137   -9.3637    0.0000 C   0  0  1  0  0  0  0  0  0  0  0  0
    6.7281   -9.7763    0.0000 C   0  0  2  0  0  0  0  0  0  0  0  0
    7.4426   -9.3637    0.0000 C   0  0  1  0  0  0  0  0  0  0  0  0
    7.4426   -8.5388    0.0000 C   0  0  2  0  0  0  0  0  0  0  0  0
    6.7281   -8.1263    0.0000 C   0  0  0  0  0  0  0  0  0  0  0  0
    8.1571   -9.7763    0.0000 C   0  0  0  0  0  0  0  0  0  0  0  0
    8.8716   -9.3637    0.0000 C   0  0  0  0  0  0  0  0  0  0  0  0
    8.8716   -8.5388    0.0000 C   0  0  0  0  0  0  0  0  0  0  0  0
    8.1571   -8.1263    0.0000 C   0  0  1  0  0  0  0  0  0  0  0  0
    9.5860   -8.1263    0.0000 C   0  0  1  0  0  0  0  0  0  0  0  0
    9.5860   -7.3012    0.0000 C   0  0  2  0  0  0  0  0  0  0  0  0
    8.8716   -6.8888    0.0000 C   0  0  0  0  0  0  0  0  0  0  0  0
    8.1571   -7.3012    0.0000 C   0  0  0  0  0  0  0  0  0  0  0  0
   10.3707   -8.3812    0.0000 C   0  0  2  0  0  0  0  0  0  0  0  0
   10.8556   -7.7138    0.0000 C   0  0  1  0  0  0  0  0  0  0  0  0
   10.3707   -7.0463    0.0000 C   0  0  2  0  0  0  0  0  0  0  0  0
   12.0116   -6.8738    0.0000 C   0  0  0  0  0  0  0  0  0  0  0  0
   11.5267   -6.2064    0.0000 C   0  0  0  0  0  0  0  0  0  0  0  0
   10.7062   -6.2926    0.0000 C   0  0  1  0  0  0  0  0  0  0  0  0
    7.1406  -10.4907    0.0000 C   0  0  0  0  0  0  0  0  0  0  0  0
    5.2992   -9.7763    0.0000 O   0  0  0  0  0  0  0  0  0  0  0  0
    6.3156  -10.4907    0.0000 C   0  0  0  0  0  0  0  0  0  0  0  0
    7.4426   -7.7138    0.0000 C   0  0  0  0  0  0  0  0  0  0  0  0
    9.5860   -6.4763    0.0000 C   0  0  0  0  0  0  0  0  0  0  0  0
    7.4426  -10.1888    0.0000 H   0  0  0  0  0  0  0  0  0  0  0  0
    9.5860   -8.9513    0.0000 C   0  0  0  0  0  0  0  0  0  0  0  0
   10.6256   -9.1658    0.0000 O   0  0  0  0  0  0  0  0  0  0  0  0
   10.2213   -5.6252    0.0000 C   0  0  0  0  0  0  0  0  0  0  0  0
    9.9582   -6.3318    0.0000 H   0  0  0  0  0  0  0  0  0  0  0  0
    3.8911   -8.1178    0.0000 C   0  0  0  0  0  0  0  0  0  0  0  0
    3.1754   -8.5281    0.0000 C   0  0  2  0  0  0  0  0  0  0  0  0
    3.1729   -9.3531    0.0000 C   0  0  1  0  0  0  0  0  0  0  0  0
    3.8862   -9.7678    0.0000 C   0  0  2  0  0  0  0  0  0  0  0  0
    4.6019   -9.3574    0.0000 C   0  0  1  0  0  0  0  0  0  0  0  0
    4.6044   -8.5324    0.0000 O   0  0  0  0  0  0  0  0  0  0  0  0
    2.4572   -9.7635    0.0000 O   0  0  0  0  0  0  0  0  0  0  0  0
    2.4622   -8.1135    0.0000 O   0  0  0  0  0  0  0  0  0  0  0  0
    3.8837  -10.5928    0.0000 O   0  0  0  0  0  0  0  0  0  0  0  0
   11.6806   -7.7138    0.0000 C   0  0  2  0  0  0  0  0  0  0  0  0
   12.8300   -6.7698    0.0000 O   0  0  0  0  0  0  0  0  0  0  0  0
   11.3049   -8.4057    0.0000 O   0  0  0  0  0  0  0  0  0  0  0  0
   12.1448   -8.3957    0.0000 O   0  0  0  0  0  0  0  0  0  0  0  0
  1  2  1  0  0  0  0
  2  3  1  0  0  0  0
  3  4  1  0  0  0  0
  4  5  1  0  0  0  0
  5  6  1  0  0  0  0
  6  1  1  0  0  0  0
  4  7  1  0  0  0  0
  7  8  1  0  0  0  0
  8  9  2  0  0  0  0
  9 10  1  0  0  0  0
 10  5  1  0  0  0  0
  9 11  1  0  0  0  0
 11 12  1  0  0  0  0
 12 13  1  0  0  0  0
 13 14  1  0  0  0  0
 14 10  1  0  0  0  0
 11 15  1  0  0  0  0
 15 16  1  0  0  0  0
 16 17  1  0  0  0  0
 17 12  1  0  0  0  0
 18 19  1  0  0  0  0
 19 20  1  0  0  0  0
 20 17  1  0  0  0  0
  3 21  1  0  0  0  0
  2 22  1  1  0  0  0
  3 23  1  1  0  0  0
  5 24  1  1  0  0  0
 10 24  1  1  0  0  0
 12 25  1  1  0  0  0
  4 26  1  6  0  0  0
 11 27  1  6  0  0  0
 15 28  1  6  0  0  0
 20 29  1  6  0  0  0
 17 30  1  6  0  0  0
 31 32  1  0  0  0  0
 32 33  1  0  0  0  0
 33 34  1  0  0  0  0
 34 35  1  0  0  0  0
 35 36  1  0  0  0  0
 36 31  1  0  0  0  0
 33 37  1  1  0  0  0
 32 38  1  6  0  0  0
 34 39  1  6  0  0  0
 35 22  1  1  0  0  0
 16 40  1  0  0  0  0
 40 18  1  0  0  0  0
 18 41  2  0  0  0  0
 16 42  1  6  0  0  0
 40 43  1  6  0  0  0
M  END
>  <cdx:fragmentId>
5

$$$$
