99488.cdx
  Mrv1902 05222410202D          

 24 24  0  0  0  0            999 V2000
    2.3012   -7.2325    0.0000 C   0  0  0  0  0  0  0  0  0  0  0  0
    2.3012   -8.0575    0.0000 C   0  0  0  0  0  0  0  0  0  0  0  0
    3.0156   -8.4700    0.0000 C   0  0  0  0  0  0  0  0  0  0  0  0
    3.7301   -8.0575    0.0000 C   0  0  0  0  0  0  0  0  0  0  0  0
    3.7301   -7.2325    0.0000 C   0  0  0  0  0  0  0  0  0  0  0  0
    3.0156   -6.8200    0.0000 C   0  0  0  0  0  0  0  0  0  0  0  0
    1.5867   -6.8200    0.0000 O   0  0  0  0  0  0  0  0  0  0  0  0
    1.5867   -8.4700    0.0000 O   0  0  0  0  0  0  0  0  0  0  0  0
    0.8722   -8.0575    0.0000 C   0  0  0  0  0  0  0  0  0  0  0  0
    4.4446   -8.4700    0.0000 C   0  0  0  0  0  0  0  0  0  0  0  0
    5.1591   -8.0575    0.0000 C   0  0  0  0  0  0  0  0  0  0  0  0
    5.8735   -8.4700    0.0000 C   0  0  0  0  0  0  0  0  0  0  0  0
    6.5880   -8.0575    0.0000 O   0  0  0  0  0  0  0  0  0  0  0  0
    5.8735   -9.2950    0.0000 O   0  0  0  0  0  0  0  0  0  0  0  0
    7.3025   -8.4700    0.0000 C   0  0  0  0  0  0  0  0  0  0  0  0
    8.0169   -8.0575    0.0000 C   0  0  0  0  0  0  0  0  0  0  0  0
    8.7314   -8.4700    0.0000 C   0  0  0  0  0  0  0  0  0  0  0  0
    9.4459   -8.0575    0.0000 C   0  0  0  0  0  0  0  0  0  0  0  0
   10.1604   -7.6450    0.0000 C   0  0  0  0  0  0  0  0  0  0  0  0
   10.8748   -7.2325    0.0000 C   0  0  0  0  0  0  0  0  0  0  0  0
   11.5893   -6.8200    0.0000 C   0  0  0  0  0  0  0  0  0  0  0  0
   12.3038   -6.4075    0.0000 C   0  0  0  0  0  0  0  0  0  0  0  0
   13.0182   -6.8200    0.0000 C   0  0  0  0  0  0  0  0  0  0  0  0
   13.0182   -7.6450    0.0000 C   0  0  0  0  0  0  0  0  0  0  0  0
  1  2  2  0  0  0  0
  2  3  1  0  0  0  0
  3  4  2  0  0  0  0
  4  5  1  0  0  0  0
  5  6  2  0  0  0  0
  6  1  1  0  0  0  0
  1  7  1  0  0  0  0
  2  8  1  0  0  0  0
  8  9  1  0  0  0  0
  4 10  1  0  0  0  0
 10 11  2  0  0  0  0
 11 12  1  0  0  0  0
 12 13  1  0  0  0  0
 12 14  2  0  0  0  0
 13 15  1  0  0  0  0
 15 16  1  0  0  0  0
 16 17  2  0  0  0  0
 17 18  1  0  0  0  0
 18 19  3  0  0  0  0
 19 20  1  0  0  0  0
 20 21  3  0  0  0  0
 21 22  1  0  0  0  0
 22 23  2  0  0  0  0
 23 24  1  0  0  0  0
M  END
>  <cdx:fragmentId>
5

$$$$
