99484.cdx
  Mrv1902 05222410252D          

 52 59  0  0  0  0            999 V2000
    5.1612   -8.2363    0.0000 C   0  0  0  0  0  0  0  0  0  0  0  0
    5.1612   -9.0613    0.0000 C   0  0  1  0  0  0  0  0  0  0  0  0
    5.8756   -9.4738    0.0000 C   0  0  2  0  0  0  0  0  0  0  0  0
    6.5901   -9.0613    0.0000 C   0  0  1  0  0  0  0  0  0  0  0  0
    6.5901   -8.2363    0.0000 C   0  0  2  0  0  0  0  0  0  0  0  0
    5.8756   -7.8237    0.0000 C   0  0  0  0  0  0  0  0  0  0  0  0
    7.3046   -9.4738    0.0000 C   0  0  0  0  0  0  0  0  0  0  0  0
    8.0191   -9.0613    0.0000 C   0  0  0  0  0  0  0  0  0  0  0  0
    8.0191   -8.2363    0.0000 C   0  0  0  0  0  0  0  0  0  0  0  0
    7.3046   -7.8237    0.0000 C   0  0  1  0  0  0  0  0  0  0  0  0
    8.7335   -7.8237    0.0000 C   0  0  1  0  0  0  0  0  0  0  0  0
    8.7335   -6.9988    0.0000 C   0  0  2  0  0  0  0  0  0  0  0  0
    8.0191   -6.5863    0.0000 C   0  0  1  0  0  0  0  0  0  0  0  0
    7.3046   -6.9988    0.0000 C   0  0  0  0  0  0  0  0  0  0  0  0
    9.5182   -8.0787    0.0000 C   0  0  2  0  0  0  0  0  0  0  0  0
   10.0031   -7.4112    0.0000 C   0  0  2  0  0  0  0  0  0  0  0  0
    9.5182   -6.7438    0.0000 C   0  0  2  0  0  0  0  0  0  0  0  0
    6.2881  -10.1882    0.0000 C   0  0  0  0  0  0  0  0  0  0  0  0
    4.4467   -9.4738    0.0000 O   0  0  0  0  0  0  0  0  0  0  0  0
    5.4631  -10.1882    0.0000 C   0  0  0  0  0  0  0  0  0  0  0  0
    6.5901   -7.4112    0.0000 C   0  0  0  0  0  0  0  0  0  0  0  0
    8.7335   -6.1737    0.0000 C   0  0  0  0  0  0  0  0  0  0  0  0
    8.7335   -8.6487    0.0000 C   0  0  0  0  0  0  0  0  0  0  0  0
    3.0386   -7.8153    0.0000 C   0  0  0  0  0  0  0  0  0  0  0  0
    2.3229   -8.2256    0.0000 C   0  0  2  0  0  0  0  0  0  0  0  0
    2.3204   -9.0506    0.0000 C   0  0  1  0  0  0  0  0  0  0  0  0
    3.0337   -9.4653    0.0000 C   0  0  2  0  0  0  0  0  0  0  0  0
    3.7494   -9.0549    0.0000 C   0  0  1  0  0  0  0  0  0  0  0  0
    3.7519   -8.2299    0.0000 O   0  0  0  0  0  0  0  0  0  0  0  0
    1.6047   -9.4610    0.0000 O   0  0  0  0  0  0  0  0  0  0  0  0
    1.6097   -7.8110    0.0000 O   0  0  0  0  0  0  0  0  0  0  0  0
    3.0312  -10.2903    0.0000 O   0  0  0  0  0  0  0  0  0  0  0  0
    9.7731   -8.8633    0.0000 O   0  0  0  0  0  0  0  0  0  0  0  0
    9.1057   -6.0293    0.0000 H   0  0  0  0  0  0  0  0  0  0  0  0
    6.5901   -9.8863    0.0000 H   0  0  0  0  0  0  0  0  0  0  0  0
   10.8272   -7.4483    0.0000 O   0  0  0  0  0  0  0  0  0  0  0  0
   11.3700   -6.8270    0.0000 C   0  0  2  0  0  0  0  0  0  0  0  0
   11.2227   -6.0152    0.0000 C   0  0  1  0  0  0  0  0  0  0  0  0
   10.4962   -5.6243    0.0000 C   0  0  0  0  0  0  0  0  0  0  0  0
    9.7376   -5.9485    0.0000 C   0  0  1  0  0  0  0  0  0  0  0  0
    9.1164   -5.4057    0.0000 C   0  0  0  0  0  0  0  0  0  0  0  0
   10.3125   -6.4350    0.0000 O   0  0  0  0  0  0  0  0  0  0  0  0
   12.1653   -7.0465    0.0000 C   0  0  0  0  0  0  0  0  0  0  0  0
   12.7530   -6.4675    0.0000 C   0  0  0  0  0  0  0  0  0  0  0  0
   12.3729   -7.8449    0.0000 C   0  0  0  0  0  0  0  0  0  0  0  0
   12.9606   -7.2659    0.0000 O   0  0  0  0  0  0  0  0  0  0  0  0
   11.8061   -5.4319    0.0000 H   0  0  0  0  0  0  0  0  0  0  0  0
   12.0845   -6.4145    0.0000 H   0  0  0  0  0  0  0  0  0  0  0  0
    8.0191   -5.7612    0.0000 O   0  0  0  0  0  0  0  0  0  0  0  0
    7.3046   -5.3487    0.0000 C   0  0  0  0  0  0  0  0  0  0  0  0
    7.3046   -4.5237    0.0000 O   0  0  0  0  0  0  0  0  0  0  0  0
    6.5901   -5.7612    0.0000 C   0  0  0  0  0  0  0  0  0  0  0  0
  1  2  1  0  0  0  0
  2  3  1  0  0  0  0
  3  4  1  0  0  0  0
  4  5  1  0  0  0  0
  5  6  1  0  0  0  0
  6  1  1  0  0  0  0
  4  7  1  0  0  0  0
  7  8  1  0  0  0  0
  8  9  2  0  0  0  0
  9 10  1  0  0  0  0
 10  5  1  0  0  0  0
  9 11  1  0  0  0  0
 11 12  1  0  0  0  0
 12 13  1  0  0  0  0
 13 14  1  0  0  0  0
 14 10  1  0  0  0  0
 11 15  1  0  0  0  0
 15 16  1  0  0  0  0
 16 17  1  0  0  0  0
 17 12  1  0  0  0  0
  3 18  1  0  0  0  0
  2 19  1  1  0  0  0
  3 20  1  1  0  0  0
  5 21  1  1  0  0  0
 10 21  1  1  0  0  0
 12 22  1  1  0  0  0
 11 23  1  6  0  0  0
 24 25  1  0  0  0  0
 25 26  1  0  0  0  0
 26 27  1  0  0  0  0
 27 28  1  0  0  0  0
 28 29  1  0  0  0  0
 29 24  1  0  0  0  0
 26 30  1  1  0  0  0
 25 31  1  6  0  0  0
 27 32  1  6  0  0  0
 28 19  1  1  0  0  0
 15 33  1  6  0  0  0
 17 34  1  6  0  0  0
  4 35  1  6  0  0  0
 16 36  1  0  0  0  0
 36 37  1  0  0  0  0
 37 38  1  0  0  0  0
 38 39  1  0  0  0  0
 39 40  1  0  0  0  0
 40 17  1  0  0  0  0
 40 41  1  6  0  0  0
 38 42  1  0  0  0  0
 16 42  1  1  0  0  0
 37 43  1  0  0  0  0
 43 44  1  0  0  0  0
 43 45  1  0  0  0  0
 43 46  1  0  0  0  0
 38 47  1  1  0  0  0
 37 48  1  1  0  0  0
 13 49  1  1  0  0  0
 49 50  1  0  0  0  0
 50 51  2  0  0  0  0
 50 52  1  0  0  0  0
M  END
>  <cdx:fragmentId>
5

$$$$
