994897.cdx
  Mrv1902 05222410182D          

 22 23  0  0  0  0            999 V2000
    6.8863   -8.1422    0.0000 C   0  0  0  0  0  0  0  0  0  0  0  0
    6.1718   -8.5547    0.0000 C   0  0  0  0  0  0  0  0  0  0  0  0
    5.4573   -8.1422    0.0000 C   0  0  0  0  0  0  0  0  0  0  0  0
    6.8863   -7.3172    0.0000 O   0  0  0  0  0  0  0  0  0  0  0  0
    7.6007   -8.5547    0.0000 N   0  0  0  0  0  0  0  0  0  0  0  0
    8.3152   -8.1422    0.0000 C   0  0  0  0  0  0  0  0  0  0  0  0
    9.0297   -8.5547    0.0000 C   0  0  0  0  0  0  0  0  0  0  0  0
    9.7441   -8.1422    0.0000 C   0  0  0  0  0  0  0  0  0  0  0  0
    9.7441   -7.3172    0.0000 C   0  0  0  0  0  0  0  0  0  0  0  0
   10.4586   -6.9047    0.0000 C   0  0  0  0  0  0  0  0  0  0  0  0
   11.1731   -7.3172    0.0000 C   0  0  0  0  0  0  0  0  0  0  0  0
   11.1731   -8.1422    0.0000 C   0  0  0  0  0  0  0  0  0  0  0  0
   10.4586   -8.5547    0.0000 C   0  0  0  0  0  0  0  0  0  0  0  0
   11.8876   -6.9047    0.0000 O   0  0  0  0  0  0  0  0  0  0  0  0
    4.7429   -8.5547    0.0000 C   0  0  0  0  0  0  0  0  0  0  0  0
    4.0284   -8.1422    0.0000 C   0  0  0  0  0  0  0  0  0  0  0  0
    3.3139   -8.5547    0.0000 C   0  0  0  0  0  0  0  0  0  0  0  0
    3.3139   -9.3797    0.0000 C   0  0  0  0  0  0  0  0  0  0  0  0
    4.0284   -9.7922    0.0000 C   0  0  0  0  0  0  0  0  0  0  0  0
    4.7429   -9.3797    0.0000 C   0  0  0  0  0  0  0  0  0  0  0  0
    2.5994   -9.7922    0.0000 O   0  0  0  0  0  0  0  0  0  0  0  0
    2.5994   -8.1422    0.0000 O   0  0  0  0  0  0  0  0  0  0  0  0
  1  2  1  0  0  0  0
  2  3  2  0  0  0  0
  1  4  2  0  0  0  0
  1  5  1  0  0  0  0
  6  7  1  0  0  0  0
  8  9  1  0  0  0  0
  9 10  2  0  0  0  0
 10 11  1  0  0  0  0
 11 12  2  0  0  0  0
 12 13  1  0  0  0  0
  8 13  2  0  0  0  0
 11 14  1  0  0  0  0
  7  8  1  0  0  0  0
  5  6  1  0  0  0  0
 15 16  1  0  0  0  0
 16 17  2  0  0  0  0
 17 18  1  0  0  0  0
 18 19  2  0  0  0  0
 19 20  1  0  0  0  0
 15 20  2  0  0  0  0
 18 21  1  0  0  0  0
 17 22  1  0  0  0  0
  3 15  1  0  0  0  0
M  END
>  <cdx:fragmentId>
34433

$$$$
