99485.cdx
  Mrv1902 05222410252D          

 50 55  0  0  0  0            999 V2000
    4.9962   -8.5113    0.0000 C   0  0  0  0  0  0  0  0  0  0  0  0
    4.9962   -9.3362    0.0000 C   0  0  1  0  0  0  0  0  0  0  0  0
    5.7106   -9.7487    0.0000 C   0  0  2  0  0  0  0  0  0  0  0  0
    6.4251   -9.3362    0.0000 C   0  0  1  0  0  0  0  0  0  0  0  0
    6.4251   -8.5113    0.0000 C   0  0  2  0  0  0  0  0  0  0  0  0
    5.7106   -8.0987    0.0000 C   0  0  0  0  0  0  0  0  0  0  0  0
    7.1396   -9.7487    0.0000 C   0  0  0  0  0  0  0  0  0  0  0  0
    7.8541   -9.3362    0.0000 C   0  0  0  0  0  0  0  0  0  0  0  0
    7.8541   -8.5113    0.0000 C   0  0  0  0  0  0  0  0  0  0  0  0
    7.1396   -8.0987    0.0000 C   0  0  1  0  0  0  0  0  0  0  0  0
    8.5685   -8.0987    0.0000 C   0  0  1  0  0  0  0  0  0  0  0  0
    8.5685   -7.2738    0.0000 C   0  0  2  0  0  0  0  0  0  0  0  0
    7.8541   -6.8613    0.0000 C   0  0  0  0  0  0  0  0  0  0  0  0
    7.1396   -7.2738    0.0000 C   0  0  0  0  0  0  0  0  0  0  0  0
    9.3532   -8.3537    0.0000 C   0  0  2  0  0  0  0  0  0  0  0  0
    9.8381   -7.6863    0.0000 C   0  0  0  0  0  0  0  0  0  0  0  0
    9.3532   -7.0188    0.0000 C   0  0  2  0  0  0  0  0  0  0  0  0
   10.4032   -5.8526    0.0000 C   0  0  0  0  0  0  0  0  0  0  0  0
    9.6887   -6.2651    0.0000 C   0  0  1  0  0  0  0  0  0  0  0  0
    6.1231  -10.4632    0.0000 C   0  0  0  0  0  0  0  0  0  0  0  0
    4.2817   -9.7487    0.0000 O   0  0  0  0  0  0  0  0  0  0  0  0
    5.2981  -10.4632    0.0000 C   0  0  0  0  0  0  0  0  0  0  0  0
    6.4251   -7.6863    0.0000 C   0  0  0  0  0  0  0  0  0  0  0  0
    8.5685   -6.4487    0.0000 C   0  0  0  0  0  0  0  0  0  0  0  0
    8.5685   -8.9238    0.0000 C   0  0  0  0  0  0  0  0  0  0  0  0
    9.2038   -5.5977    0.0000 C   0  0  0  0  0  0  0  0  0  0  0  0
    2.8736   -8.0903    0.0000 C   0  0  0  0  0  0  0  0  0  0  0  0
    2.1579   -8.5006    0.0000 C   0  0  2  0  0  0  0  0  0  0  0  0
    2.1554   -9.3256    0.0000 C   0  0  1  0  0  0  0  0  0  0  0  0
    2.8687   -9.7403    0.0000 C   0  0  2  0  0  0  0  0  0  0  0  0
    3.5844   -9.3299    0.0000 C   0  0  1  0  0  0  0  0  0  0  0  0
    3.5869   -8.5049    0.0000 O   0  0  0  0  0  0  0  0  0  0  0  0
    1.4397   -9.7360    0.0000 O   0  0  0  0  0  0  0  0  0  0  0  0
    1.4447   -8.0860    0.0000 O   0  0  0  0  0  0  0  0  0  0  0  0
    2.8662  -10.5653    0.0000 O   0  0  0  0  0  0  0  0  0  0  0  0
    9.6081   -9.1383    0.0000 O   0  0  0  0  0  0  0  0  0  0  0  0
    9.1396   -7.8157    0.0000 H   0  0  0  0  0  0  0  0  0  0  0  0
    6.4251  -10.1612    0.0000 H   0  0  0  0  0  0  0  0  0  0  0  0
   10.6631   -7.6863    0.0000 O   0  0  0  0  0  0  0  0  0  0  0  0
   11.1177   -6.2651    0.0000 C   0  0  2  0  0  0  0  0  0  0  0  0
   11.8321   -5.8526    0.0000 C   0  0  2  0  0  0  0  0  0  0  0  0
   12.5466   -6.2651    0.0000 C   0  0  0  0  0  0  0  0  0  0  0  0
   13.2611   -6.6776    0.0000 O   0  0  0  0  0  0  0  0  0  0  0  0
   12.1341   -6.9796    0.0000 C   0  0  0  0  0  0  0  0  0  0  0  0
   12.9591   -5.5507    0.0000 C   0  0  0  0  0  0  0  0  0  0  0  0
   11.8321   -5.0276    0.0000 O   0  0  0  0  0  0  0  0  0  0  0  0
   11.1177   -7.0901    0.0000 O   0  0  0  0  0  0  0  0  0  0  0  0
   11.8321   -7.5026    0.0000 C   0  0  0  0  0  0  0  0  0  0  0  0
   11.8321   -8.3276    0.0000 O   0  0  0  0  0  0  0  0  0  0  0  0
   12.5466   -7.0901    0.0000 C   0  0  0  0  0  0  0  0  0  0  0  0
  1  2  1  0  0  0  0
  2  3  1  0  0  0  0
  3  4  1  0  0  0  0
  4  5  1  0  0  0  0
  5  6  1  0  0  0  0
  6  1  1  0  0  0  0
  4  7  1  0  0  0  0
  7  8  1  0  0  0  0
  8  9  2  0  0  0  0
  9 10  1  0  0  0  0
 10  5  1  0  0  0  0
  9 11  1  0  0  0  0
 11 12  1  0  0  0  0
 12 13  1  0  0  0  0
 13 14  1  0  0  0  0
 14 10  1  0  0  0  0
 11 15  1  0  0  0  0
 15 16  1  0  0  0  0
 16 17  1  0  0  0  0
 17 12  1  0  0  0  0
 18 19  1  0  0  0  0
 19 17  1  0  0  0  0
  3 20  1  0  0  0  0
  2 21  1  1  0  0  0
  3 22  1  1  0  0  0
  5 23  1  1  0  0  0
 10 23  1  1  0  0  0
 12 24  1  1  0  0  0
 11 25  1  6  0  0  0
 19 26  1  6  0  0  0
 27 28  1  0  0  0  0
 28 29  1  0  0  0  0
 29 30  1  0  0  0  0
 30 31  1  0  0  0  0
 31 32  1  0  0  0  0
 32 27  1  0  0  0  0
 29 33  1  1  0  0  0
 28 34  1  6  0  0  0
 30 35  1  6  0  0  0
 31 21  1  1  0  0  0
 15 36  1  6  0  0  0
 17 37  1  6  0  0  0
  4 38  1  6  0  0  0
 16 39  2  0  0  0  0
 18 40  1  0  0  0  0
 40 41  1  0  0  0  0
 41 42  1  0  0  0  0
 42 43  1  0  0  0  0
 42 44  1  0  0  0  0
 42 45  1  0  0  0  0
 41 46  1  1  0  0  0
 40 47  1  6  0  0  0
 47 48  1  0  0  0  0
 48 49  2  0  0  0  0
 48 50  1  0  0  0  0
M  END
>  <cdx:fragmentId>
5

$$$$
