99491.cdx
  Mrv1902 05222410252D          

 20 19  0  0  0  0            999 V2000
    8.8679   -7.9063    0.0000 C   0  0  0  0  0  0  0  0  0  0  0  0
    8.1534   -8.3187    0.0000 C   0  0  0  0  0  0  0  0  0  0  0  0
    7.4389   -7.9063    0.0000 C   0  0  0  0  0  0  0  0  0  0  0  0
    6.7244   -8.3187    0.0000 C   0  0  0  0  0  0  0  0  0  0  0  0
    6.0100   -7.9063    0.0000 C   0  0  0  0  0  0  0  0  0  0  0  0
    5.2955   -8.3187    0.0000 C   0  0  0  0  0  0  0  0  0  0  0  0
    4.5810   -7.9063    0.0000 C   0  0  0  0  0  0  0  0  0  0  0  0
    3.8666   -8.3187    0.0000 C   0  0  0  0  0  0  0  0  0  0  0  0
    3.1521   -7.9063    0.0000 C   0  0  0  0  0  0  0  0  0  0  0  0
    2.4376   -8.3187    0.0000 C   0  0  0  0  0  0  0  0  0  0  0  0
    1.7231   -7.9063    0.0000 C   0  0  0  0  0  0  0  0  0  0  0  0
    6.7244   -9.1438    0.0000 O   0  0  0  0  0  0  0  0  0  0  0  0
    7.4389   -7.0812    0.0000 O   0  0  0  0  0  0  0  0  0  0  0  0
    8.1534   -9.1438    0.0000 Cl  0  0  0  0  0  0  0  0  0  0  0  0
    9.5823   -7.4937    0.0000 C   0  0  0  0  0  0  0  0  0  0  0  0
   10.2968   -7.0812    0.0000 C   0  0  0  0  0  0  0  0  0  0  0  0
   11.0113   -6.6688    0.0000 C   0  0  0  0  0  0  0  0  0  0  0  0
   11.7257   -6.2563    0.0000 C   0  0  0  0  0  0  0  0  0  0  0  0
   12.4402   -6.6688    0.0000 C   0  0  0  0  0  0  0  0  0  0  0  0
   13.1547   -6.2563    0.0000 C   0  0  0  0  0  0  0  0  0  0  0  0
  2  1  1  0  0  0  0
  3  2  1  0  0  0  0
  4  3  1  0  0  0  0
  5  4  1  0  0  0  0
  6  5  1  0  0  0  0
  7  6  1  0  0  0  0
  8  7  1  0  0  0  0
  9  8  1  0  0  0  0
 10  9  1  0  0  0  0
 11 10  2  0  0  0  0
  4 12  1  0  0  0  0
  3 13  1  0  0  0  0
  2 14  1  0  0  0  0
  1 15  3  0  0  0  0
 15 16  1  0  0  0  0
 16 17  3  0  0  0  0
 17 18  1  0  0  0  0
 18 19  1  0  0  0  0
 19 20  1  0  0  0  0
M  END
>  <cdx:fragmentId>
3

$$$$
