99492.cdx
  Mrv1902 05222410252D          

 23 23  0  0  0  0            999 V2000
    5.5869   -5.3213    0.0000 C   0  0  0  0  0  0  0  0  0  0  0  0
    6.3014   -4.9088    0.0000 C   0  0  0  0  0  0  0  0  0  0  0  0
    7.0158   -5.3213    0.0000 C   0  0  0  0  0  0  0  0  0  0  0  0
    7.7303   -4.9088    0.0000 C   0  0  0  0  0  0  0  0  0  0  0  0
    8.4448   -5.3213    0.0000 C   0  0  0  0  0  0  0  0  0  0  0  0
    9.1593   -4.9088    0.0000 C   0  0  0  0  0  0  0  0  0  0  0  0
    9.8737   -5.3213    0.0000 C   0  0  0  0  0  0  0  0  0  0  0  0
   10.5882   -4.9088    0.0000 C   0  0  0  0  0  0  0  0  0  0  0  0
    5.5869   -6.1463    0.0000 C   0  0  0  0  0  0  0  0  0  0  0  0
    6.3014   -6.5587    0.0000 C   0  0  0  0  0  0  0  0  0  0  0  0
    6.3014   -7.3838    0.0000 C   0  0  0  0  0  0  0  0  0  0  0  0
    7.0158   -6.1463    0.0000 O   0  0  0  0  0  0  0  0  0  0  0  0
    6.3014   -8.2088    0.0000 C   0  0  0  0  0  0  0  0  0  0  0  0
    6.3014   -9.0337    0.0000 C   0  0  0  0  0  0  0  0  0  0  0  0
    6.3014   -9.8588    0.0000 C   0  0  0  0  0  0  0  0  0  0  0  0
    6.3014  -10.6837    0.0000 C   0  0  0  0  0  0  0  0  0  0  0  0
    7.0158  -11.0962    0.0000 C   0  0  0  0  0  0  0  0  0  0  0  0
    4.8023   -5.0663    0.0000 O   0  0  0  0  0  0  0  0  0  0  0  0
    4.3174   -5.7338    0.0000 C   0  0  0  0  0  0  0  0  0  0  0  0
    4.8023   -6.4012    0.0000 O   0  0  0  0  0  0  0  0  0  0  0  0
    3.7340   -6.3171    0.0000 C   0  0  0  0  0  0  0  0  0  0  0  0
    3.7340   -5.1504    0.0000 C   0  0  0  0  0  0  0  0  0  0  0  0
    7.0158  -11.9213    0.0000 C   0  0  0  0  0  0  0  0  0  0  0  0
  1  2  1  0  0  0  0
  2  3  1  0  0  0  0
  3  4  1  0  0  0  0
  4  5  1  0  0  0  0
  5  6  1  0  0  0  0
  6  7  1  0  0  0  0
  7  8  2  0  0  0  0
  1  9  1  0  0  0  0
  9 10  1  0  0  0  0
 10 11  1  0  0  0  0
 10 12  1  0  0  0  0
 11 13  3  0  0  0  0
 13 14  1  0  0  0  0
 14 15  3  0  0  0  0
 15 16  1  0  0  0  0
 16 17  2  0  0  0  0
  1 18  1  0  0  0  0
 18 19  1  0  0  0  0
 19 20  1  0  0  0  0
 20  9  1  0  0  0  0
 19 21  1  0  0  0  0
 19 22  1  0  0  0  0
 17 23  1  0  0  0  0
M  END
>  <cdx:fragmentId>
3

$$$$
