99504.cdx
  Mrv1902 05222410222D          

 57 63  0  0  0  0            999 V2000
    6.7974   -7.2462    0.0000 C   0  0  0  0  0  0  0  0  0  0  0  0
    6.7974   -8.0713    0.0000 C   0  0  0  0  0  0  0  0  0  0  0  0
    7.5119   -8.4838    0.0000 C   0  0  1  0  0  0  0  0  0  0  0  0
    8.2264   -8.0713    0.0000 C   0  0  1  0  0  0  0  0  0  0  0  0
    8.2264   -7.2462    0.0000 C   0  0  2  0  0  0  0  0  0  0  0  0
    7.5119   -6.8338    0.0000 C   0  0  0  0  0  0  0  0  0  0  0  0
    8.9408   -8.4838    0.0000 C   0  0  0  0  0  0  0  0  0  0  0  0
    9.6553   -8.0713    0.0000 C   0  0  0  0  0  0  0  0  0  0  0  0
    9.6553   -7.2462    0.0000 C   0  0  2  0  0  0  0  0  0  0  0  0
    8.9408   -6.8338    0.0000 C   0  0  2  0  0  0  0  0  0  0  0  0
   10.3698   -6.8338    0.0000 C   0  0  1  0  0  0  0  0  0  0  0  0
   10.3698   -6.0088    0.0000 C   0  0  0  0  0  0  0  0  0  0  0  0
    9.6553   -5.5962    0.0000 C   0  0  0  0  0  0  0  0  0  0  0  0
    8.9408   -6.0088    0.0000 C   0  0  0  0  0  0  0  0  0  0  0  0
   11.0843   -7.2462    0.0000 C   0  0  0  0  0  0  0  0  0  0  0  0
   11.7987   -6.8338    0.0000 C   0  0  0  0  0  0  0  0  0  0  0  0
   11.7987   -6.0088    0.0000 C   0  0  2  0  0  0  0  0  0  0  0  0
   11.0843   -5.5962    0.0000 C   0  0  1  0  0  0  0  0  0  0  0  0
   12.5132   -5.5962    0.0000 C   0  0  0  0  0  0  0  0  0  0  0  0
   12.5132   -4.7713    0.0000 C   0  0  0  0  0  0  0  0  0  0  0  0
   11.7987   -4.3587    0.0000 C   0  0  2  0  0  0  0  0  0  0  0  0
   11.0843   -4.7713    0.0000 C   0  0  2  0  0  0  0  0  0  0  0  0
   12.5132   -6.4213    0.0000 C   0  0  0  0  0  0  0  0  0  0  0  0
   13.2277   -6.0088    0.0000 O   0  0  0  0  0  0  0  0  0  0  0  0
   12.5132   -7.2462    0.0000 O   0  0  0  0  0  0  0  0  0  0  0  0
    7.9244   -9.1982    0.0000 C   0  0  0  0  0  0  0  0  0  0  0  0
    8.2264   -6.4213    0.0000 C   0  0  0  0  0  0  0  0  0  0  0  0
    9.6553   -6.4213    0.0000 C   0  0  0  0  0  0  0  0  0  0  0  0
   11.0843   -6.4213    0.0000 H   0  0  0  0  0  0  0  0  0  0  0  0
   10.6718   -4.0568    0.0000 C   0  0  0  0  0  0  0  0  0  0  0  0
    7.0994   -9.1982    0.0000 C   0  0  0  0  0  0  0  0  0  0  0  0
    8.2264   -8.8963    0.0000 H   0  0  0  0  0  0  0  0  0  0  0  0
    8.9408   -7.6587    0.0000 H   0  0  0  0  0  0  0  0  0  0  0  0
   10.3698   -7.6587    0.0000 C   0  0  0  0  0  0  0  0  0  0  0  0
   10.2593   -4.7713    0.0000 O   0  0  0  0  0  0  0  0  0  0  0  0
   11.7987   -3.5337    0.0000 C   0  0  0  0  0  0  0  0  0  0  0  0
    6.0830   -8.4838    0.0000 O   0  0  0  0  0  0  0  0  0  0  0  0
    4.6433   -6.8377    0.0000 C   0  0  0  0  0  0  0  0  0  0  0  0
    3.9292   -7.2508    0.0000 C   0  0  2  0  0  0  0  0  0  0  0  0
    3.9300   -8.0758    0.0000 C   0  0  1  0  0  0  0  0  0  0  0  0
    4.6449   -8.4877    0.0000 C   0  0  2  0  0  0  0  0  0  0  0  0
    5.3590   -8.0745    0.0000 C   0  0  1  0  0  0  0  0  0  0  0  0
    5.3582   -7.2495    0.0000 O   0  0  0  0  0  0  0  0  0  0  0  0
    3.2159   -8.4890    0.0000 O   0  0  0  0  0  0  0  0  0  0  0  0
    3.2144   -6.8390    0.0000 O   0  0  0  0  0  0  0  0  0  0  0  0
    4.6457   -9.3127    0.0000 O   0  0  0  0  0  0  0  0  0  0  0  0
    2.4934   -9.7435    0.0000 C   0  0  2  0  0  0  0  0  0  0  0  0
    2.4934  -10.5685    0.0000 C   0  0  2  0  0  0  0  0  0  0  0  0
    3.2079  -10.9810    0.0000 C   0  0  1  0  0  0  0  0  0  0  0  0
    3.9224  -10.5685    0.0000 C   0  0  2  0  0  0  0  0  0  0  0  0
    3.9224   -9.7435    0.0000 C   0  0  1  0  0  0  0  0  0  0  0  0
    3.2079   -9.3310    0.0000 O   0  0  0  0  0  0  0  0  0  0  0  0
    1.7789   -9.3310    0.0000 C   0  0  0  0  0  0  0  0  0  0  0  0
    3.2079  -11.8060    0.0000 O   0  0  0  0  0  0  0  0  0  0  0  0
    1.7789  -10.9810    0.0000 O   0  0  0  0  0  0  0  0  0  0  0  0
    4.6368  -10.9810    0.0000 O   0  0  0  0  0  0  0  0  0  0  0  0
    1.0645   -9.7435    0.0000 O   0  0  0  0  0  0  0  0  0  0  0  0
  1  2  1  0  0  0  0
  2  3  1  0  0  0  0
  3  4  1  0  0  0  0
  4  5  1  0  0  0  0
  5  6  1  0  0  0  0
  6  1  1  0  0  0  0
  4  7  1  0  0  0  0
  7  8  1  0  0  0  0
  8  9  1  0  0  0  0
  9 10  1  0  0  0  0
 10  5  1  0  0  0  0
  9 11  1  0  0  0  0
 11 12  1  0  0  0  0
 12 13  2  0  0  0  0
 13 14  1  0  0  0  0
 14 10  1  0  0  0  0
 11 15  1  0  0  0  0
 15 16  1  0  0  0  0
 16 17  1  0  0  0  0
 17 18  1  0  0  0  0
 18 12  1  0  0  0  0
 17 19  1  0  0  0  0
 19 20  1  0  0  0  0
 20 21  1  0  0  0  0
 21 22  1  0  0  0  0
 22 18  1  0  0  0  0
 17 23  1  1  0  0  0
 23 24  2  0  0  0  0
 23 25  1  0  0  0  0
  3 26  1  1  0  0  0
  5 27  1  1  0  0  0
  9 28  1  1  0  0  0
 18 29  1  1  0  0  0
 22 30  1  1  0  0  0
  3 31  1  6  0  0  0
  4 32  1  6  0  0  0
 10 33  1  6  0  0  0
 11 34  1  6  0  0  0
 22 35  1  6  0  0  0
 21 36  1  6  0  0  0
  2 37  1  0  0  0  0
 38 39  1  0  0  0  0
 39 40  1  0  0  0  0
 40 41  1  0  0  0  0
 41 42  1  0  0  0  0
 42 43  1  0  0  0  0
 43 38  1  0  0  0  0
 40 44  1  1  0  0  0
 39 45  1  6  0  0  0
 41 46  1  6  0  0  0
 47 48  1  0  0  0  0
 48 49  1  0  0  0  0
 49 50  1  0  0  0  0
 50 51  1  0  0  0  0
 51 52  1  0  0  0  0
 52 47  1  0  0  0  0
 47 53  1  1  0  0  0
 49 54  1  1  0  0  0
 48 55  1  6  0  0  0
 50 56  1  6  0  0  0
 53 57  1  0  0  0  0
 51 46  1  1  0  0  0
 42 37  1  1  0  0  0
M  END
>  <cdx:fragmentId>
5

$$$$
