99505.cdx
  Mrv1902 05222410222D          

 31 33  0  0  0  0            999 V2000
    6.7029   -8.9838    0.0000 C   0  0  0  0  0  0  0  0  0  0  0  0
    7.4193   -9.3930    0.0000 O   0  0  0  0  0  0  0  0  0  0  0  0
    8.1319   -8.9773    0.0000 C   0  0  0  0  0  0  0  0  0  0  0  0
    8.1281   -8.1523    0.0000 C   0  0  0  0  0  0  0  0  0  0  0  0
    7.4118   -7.7431    0.0000 C   0  0  0  0  0  0  0  0  0  0  0  0
    6.6992   -8.1588    0.0000 C   0  0  0  0  0  0  0  0  0  0  0  0
    8.8482   -9.3866    0.0000 C   0  0  0  0  0  0  0  0  0  0  0  0
    9.5608   -8.9708    0.0000 C   0  0  0  0  0  0  0  0  0  0  0  0
    9.5570   -8.1458    0.0000 C   0  0  0  0  0  0  0  0  0  0  0  0
    8.8407   -7.7366    0.0000 C   0  0  0  0  0  0  0  0  0  0  0  0
   10.2696   -7.7301    0.0000 C   0  0  0  0  0  0  0  0  0  0  0  0
   10.2659   -6.9051    0.0000 C   0  0  0  0  0  0  0  0  0  0  0  0
    9.5496   -6.4958    0.0000 C   0  0  0  0  0  0  0  0  0  0  0  0
    8.8370   -6.9116    0.0000 O   0  0  0  0  0  0  0  0  0  0  0  0
    5.9828   -7.7495    0.0000 O   0  0  0  0  0  0  0  0  0  0  0  0
    7.4080   -6.9181    0.0000 O   0  0  0  0  0  0  0  0  0  0  0  0
    6.2937   -9.7001    0.0000 C   0  0  0  0  0  0  0  0  0  0  0  0
    5.8779   -8.9875    0.0000 C   0  0  0  0  0  0  0  0  0  0  0  0
    9.5458   -5.6709    0.0000 O   0  0  0  0  0  0  0  0  0  0  0  0
    6.7081   -6.5114    0.0000 C   0  0  0  0  0  0  0  0  0  0  0  0
    6.7099   -5.6864    0.0000 C   0  0  0  0  0  0  0  0  0  0  0  0
    5.9928   -6.9223    0.0000 O   0  0  0  0  0  0  0  0  0  0  0  0
    5.9964   -5.2723    0.0000 C   0  0  0  0  0  0  0  0  0  0  0  0
    7.4253   -5.2755    0.0000 C   0  0  0  0  0  0  0  0  0  0  0  0
    8.1389   -5.6895    0.0000 C   0  0  0  0  0  0  0  0  0  0  0  0
    5.2703   -8.1653    0.0000 C   0  0  0  0  0  0  0  0  0  0  0  0
    4.5539   -7.7560    0.0000 C   0  0  0  0  0  0  0  0  0  0  0  0
    5.2740   -8.9903    0.0000 O   0  0  0  0  0  0  0  0  0  0  0  0
    3.8413   -8.1718    0.0000 C   0  0  0  0  0  0  0  0  0  0  0  0
    3.1250   -7.7625    0.0000 C   0  0  0  0  0  0  0  0  0  0  0  0
    3.8451   -8.9968    0.0000 C   0  0  0  0  0  0  0  0  0  0  0  0
  1  2  1  0  0  0  0
  2  3  1  0  0  0  0
  3  4  2  0  0  0  0
  4  5  1  0  0  0  0
  5  6  1  0  0  0  0
  6  1  1  0  0  0  0
  3  7  1  0  0  0  0
  7  8  2  0  0  0  0
  8  9  1  0  0  0  0
  9 10  2  0  0  0  0
 10  4  1  0  0  0  0
  9 11  1  0  0  0  0
 11 12  2  0  0  0  0
 12 13  1  0  0  0  0
 13 14  1  0  0  0  0
 14 10  1  0  0  0  0
  6 15  1  0  0  0  0
  5 16  1  0  0  0  0
  1 17  1  0  0  0  0
  1 18  1  0  0  0  0
 13 19  2  0  0  0  0
 20 21  1  0  0  0  0
 20 22  2  0  0  0  0
 21 23  1  0  0  0  0
 21 24  2  0  0  0  0
 24 25  1  0  0  0  0
 20 16  1  0  0  0  0
 15 26  1  0  0  0  0
 26 27  1  0  0  0  0
 26 28  2  0  0  0  0
 27 29  1  0  0  0  0
 29 30  1  0  0  0  0
 29 31  1  0  0  0  0
M  END
>  <cdx:fragmentId>
5

$$$$
