99503.cdx
  Mrv1902 05222410202D          

 34 37  0  0  0  0            999 V2000
    5.5187   -8.6350    0.0000 C   0  0  0  0  0  0  0  0  0  0  0  0
    5.5187   -9.4600    0.0000 C   0  0  0  0  0  0  0  0  0  0  0  0
    6.2331   -9.8725    0.0000 C   0  0  0  0  0  0  0  0  0  0  0  0
    6.9476   -9.4600    0.0000 C   0  0  0  0  0  0  0  0  0  0  0  0
    6.9476   -8.6350    0.0000 C   0  0  0  0  0  0  0  0  0  0  0  0
    6.2331   -8.2225    0.0000 C   0  0  0  0  0  0  0  0  0  0  0  0
    7.6621   -9.8725    0.0000 C   0  0  0  0  0  0  0  0  0  0  0  0
    8.3766   -9.4600    0.0000 C   0  0  0  0  0  0  0  0  0  0  0  0
    8.3766   -8.6350    0.0000 C   0  0  0  0  0  0  0  0  0  0  0  0
    7.6621   -8.2225    0.0000 O   0  0  0  0  0  0  0  0  0  0  0  0
    9.8055   -8.6350    0.0000 C   0  0  0  0  0  0  0  0  0  0  0  0
    9.0910   -8.2225    0.0000 C   0  0  0  0  0  0  0  0  0  0  0  0
   10.5200   -8.2225    0.0000 C   0  0  0  0  0  0  0  0  0  0  0  0
   10.5200   -7.3975    0.0000 C   0  0  0  0  0  0  0  0  0  0  0  0
    9.8055   -6.9850    0.0000 C   0  0  0  0  0  0  0  0  0  0  0  0
    9.0910   -7.3975    0.0000 C   0  0  0  0  0  0  0  0  0  0  0  0
    7.6621  -10.6975    0.0000 O   0  0  0  0  0  0  0  0  0  0  0  0
    6.2331  -10.6975    0.0000 O   0  0  0  0  0  0  0  0  0  0  0  0
    4.8042   -9.8725    0.0000 O   0  0  0  0  0  0  0  0  0  0  0  0
    4.8042  -10.6975    0.0000 C   0  0  0  0  0  0  0  0  0  0  0  0
    4.8101   -7.3724    0.0000 C   0  0  1  0  0  0  0  0  0  0  0  0
    5.5251   -6.9608    0.0000 O   0  0  0  0  0  0  0  0  0  0  0  0
    5.5261   -6.1358    0.0000 C   0  0  1  0  0  0  0  0  0  0  0  0
    4.8122   -5.7224    0.0000 C   0  0  2  0  0  0  0  0  0  0  0  0
    4.0972   -6.1340    0.0000 C   0  0  1  0  0  0  0  0  0  0  0  0
    4.0962   -6.9590    0.0000 C   0  0  1  0  0  0  0  0  0  0  0  0
    3.3812   -7.3706    0.0000 O   0  0  0  0  0  0  0  0  0  0  0  0
    4.8132   -4.8974    0.0000 O   0  0  0  0  0  0  0  0  0  0  0  0
    3.3832   -5.7206    0.0000 O   0  0  0  0  0  0  0  0  0  0  0  0
    6.2411   -5.7242    0.0000 C   0  0  0  0  0  0  0  0  0  0  0  0
    6.2421   -4.8992    0.0000 O   0  0  0  0  0  0  0  0  0  0  0  0
    6.9551   -6.1375    0.0000 O   0  0  0  0  0  0  0  0  0  0  0  0
    4.8091   -8.1974    0.0000 O   0  0  0  0  0  0  0  0  0  0  0  0
    6.9566   -4.4867    0.0000 C   0  0  0  0  0  0  0  0  0  0  0  0
  1  2  2  0  0  0  0
  2  3  1  0  0  0  0
  3  4  2  0  0  0  0
  4  5  1  0  0  0  0
  5  6  2  0  0  0  0
  6  1  1  0  0  0  0
  4  7  1  0  0  0  0
  7  8  1  0  0  0  0
  8  9  2  0  0  0  0
  9 10  1  0  0  0  0
 10  5  1  0  0  0  0
 11 12  2  0  0  0  0
 12  9  1  0  0  0  0
 11 13  1  0  0  0  0
 13 14  2  0  0  0  0
 14 15  1  0  0  0  0
 15 16  2  0  0  0  0
 16 12  1  0  0  0  0
  7 17  2  0  0  0  0
  3 18  1  0  0  0  0
  2 19  1  0  0  0  0
 19 20  1  0  0  0  0
 21 22  1  0  0  0  0
 22 23  1  0  0  0  0
 23 24  1  0  0  0  0
 24 25  1  0  0  0  0
 25 26  1  0  0  0  0
 26 21  1  0  0  0  0
 26 27  1  6  0  0  0
 24 28  1  6  0  0  0
 25 29  1  1  0  0  0
 23 30  1  1  0  0  0
 30 31  1  0  0  0  0
 30 32  2  0  0  0  0
 21 33  1  6  0  0  0
  1 33  1  0  0  0  0
 31 34  1  0  0  0  0
M  END
>  <cdx:fragmentId>
5

$$$$
