99514.cdx
  Mrv1902 05222410212D          

 27 29  0  0  0  0            999 V2000
    6.8062  -10.3448    0.0000 C   0  0  0  0  0  0  0  0  0  0  0  0
    7.5187  -10.7607    0.0000 O   0  0  0  0  0  0  0  0  0  0  0  0
    8.2351  -10.3517    0.0000 C   0  0  0  0  0  0  0  0  0  0  0  0
    8.2392   -9.5267    0.0000 C   0  0  0  0  0  0  0  0  0  0  0  0
    7.5267   -9.1108    0.0000 C   0  0  1  0  0  0  0  0  0  0  0  0
    6.8102   -9.5198    0.0000 C   0  0  2  0  0  0  0  0  0  0  0  0
    8.9476  -10.7677    0.0000 C   0  0  0  0  0  0  0  0  0  0  0  0
    9.6641  -10.3587    0.0000 C   0  0  0  0  0  0  0  0  0  0  0  0
    9.6681   -9.5337    0.0000 C   0  0  0  0  0  0  0  0  0  0  0  0
    8.9556   -9.1177    0.0000 C   0  0  0  0  0  0  0  0  0  0  0  0
   10.3846   -9.1247    0.0000 C   0  0  0  0  0  0  0  0  0  0  0  0
   10.3886   -8.2997    0.0000 C   0  0  0  0  0  0  0  0  0  0  0  0
    9.6762   -7.8837    0.0000 C   0  0  0  0  0  0  0  0  0  0  0  0
    8.9597   -8.2927    0.0000 O   0  0  0  0  0  0  0  0  0  0  0  0
    6.0978   -9.1038    0.0000 O   0  0  0  0  0  0  0  0  0  0  0  0
    7.5307   -8.2858    0.0000 O   0  0  0  0  0  0  0  0  0  0  0  0
    6.3902  -11.0572    0.0000 C   0  0  0  0  0  0  0  0  0  0  0  0
    5.9812  -10.3407    0.0000 C   0  0  0  0  0  0  0  0  0  0  0  0
    9.6802   -7.0587    0.0000 O   0  0  0  0  0  0  0  0  0  0  0  0
    6.8452   -7.0476    0.0000 O   0  0  0  0  0  0  0  0  0  0  0  0
    6.1150   -8.2759    0.0000 C   0  0  0  0  0  0  0  0  0  0  0  0
    6.8347   -7.8725    0.0000 C   0  0  0  0  0  0  0  0  0  0  0  0
    5.3783   -9.5170    0.0000 C   0  0  0  0  0  0  0  0  0  0  0  0
    4.6658   -9.1010    0.0000 C   0  0  0  0  0  0  0  0  0  0  0  0
    5.3742  -10.3419    0.0000 O   0  0  0  0  0  0  0  0  0  0  0  0
    3.9493   -9.5100    0.0000 C   0  0  0  0  0  0  0  0  0  0  0  0
    4.6698   -8.2760    0.0000 C   0  0  0  0  0  0  0  0  0  0  0  0
  1  2  1  0  0  0  0
  2  3  1  0  0  0  0
  3  4  2  0  0  0  0
  4  5  1  0  0  0  0
  5  6  1  0  0  0  0
  6  1  1  0  0  0  0
  3  7  1  0  0  0  0
  7  8  2  0  0  0  0
  8  9  1  0  0  0  0
  9 10  2  0  0  0  0
 10  4  1  0  0  0  0
  9 11  1  0  0  0  0
 11 12  2  0  0  0  0
 12 13  1  0  0  0  0
 13 14  1  0  0  0  0
 14 10  1  0  0  0  0
  6 15  1  1  0  0  0
  5 16  1  1  0  0  0
  1 17  1  0  0  0  0
  1 18  1  0  0  0  0
 13 19  2  0  0  0  0
 22 20  2  0  0  0  0
 22 21  1  0  0  0  0
 22 16  1  0  0  0  0
 23 24  1  0  0  0  0
 23 25  2  0  0  0  0
 24 26  1  0  0  0  0
 23 15  1  0  0  0  0
 24 27  1  0  0  0  0
M  END
>  <cdx:fragmentId>
5

$$$$
