99516.cdx
  Mrv1902 05222410212D          

 36 41  0  0  0  0            999 V2000
    6.6065   -6.8296    0.0000 C   0  0  1  0  0  0  0  0  0  0  0  0
    7.3210   -6.4171    0.0000 C   0  0  2  0  0  0  0  0  0  0  0  0
    8.1056   -6.6720    0.0000 C   0  0  0  0  0  0  0  0  0  0  0  0
    8.5905   -6.0046    0.0000 C   0  0  2  0  0  0  0  0  0  0  0  0
    9.3751   -5.7497    0.0000 O   0  0  0  0  0  0  0  0  0  0  0  0
    9.3751   -4.9247    0.0000 C   0  0  2  0  0  0  0  0  0  0  0  0
    8.5905   -4.6697    0.0000 C   0  0  2  0  0  0  0  0  0  0  0  0
    8.1056   -5.3372    0.0000 C   0  0  2  0  0  0  0  0  0  0  0  0
    7.3210   -5.5921    0.0000 C   0  0  1  0  0  0  0  0  0  0  0  0
    6.6065   -5.1796    0.0000 C   0  0  0  0  0  0  0  0  0  0  0  0
    5.8920   -5.5921    0.0000 C   0  0  0  0  0  0  0  0  0  0  0  0
    5.8920   -6.4171    0.0000 C   0  0  2  0  0  0  0  0  0  0  0  0
    5.1776   -6.8296    0.0000 C   0  0  1  0  0  0  0  0  0  0  0  0
    4.4631   -6.4171    0.0000 C   0  0  0  0  0  0  0  0  0  0  0  0
    3.7486   -6.8296    0.0000 C   0  0  0  0  0  0  0  0  0  0  0  0
    3.7486   -7.6546    0.0000 C   0  0  1  0  0  0  0  0  0  0  0  0
    4.4631   -8.0671    0.0000 C   0  0  0  0  0  0  0  0  0  0  0  0
    5.1776   -7.6546    0.0000 C   0  0  2  0  0  0  0  0  0  0  0  0
    5.8920   -8.0671    0.0000 C   0  0  0  0  0  0  0  0  0  0  0  0
    6.6065   -7.6546    0.0000 C   0  0  0  0  0  0  0  0  0  0  0  0
    9.2889   -4.1042    0.0000 O   0  0  0  0  0  0  0  0  0  0  0  0
   10.1288   -5.2602    0.0000 C   0  0  0  0  0  0  0  0  0  0  0  0
   10.7963   -4.7753    0.0000 C   0  0  0  0  0  0  0  0  0  0  0  0
   10.7100   -3.9548    0.0000 C   0  0  2  0  0  0  0  0  0  0  0  0
    9.9563   -3.6193    0.0000 C   0  0  0  0  0  0  0  0  0  0  0  0
    3.0341   -8.0671    0.0000 O   0  0  0  0  0  0  0  0  0  0  0  0
    5.1776   -6.0046    0.0000 C   0  0  0  0  0  0  0  0  0  0  0  0
    7.3210   -4.7671    0.0000 C   0  0  0  0  0  0  0  0  0  0  0  0
    8.3356   -3.8851    0.0000 C   0  0  0  0  0  0  0  0  0  0  0  0
   11.3775   -3.4699    0.0000 C   0  0  0  0  0  0  0  0  0  0  0  0
    6.6065   -6.0046    0.0000 H   0  0  0  0  0  0  0  0  0  0  0  0
    7.3210   -7.2421    0.0000 H   0  0  0  0  0  0  0  0  0  0  0  0
    9.0754   -6.6720    0.0000 H   0  0  0  0  0  0  0  0  0  0  0  0
    7.7439   -4.5957    0.0000 H   0  0  0  0  0  0  0  0  0  0  0  0
    5.8920   -7.2421    0.0000 H   0  0  0  0  0  0  0  0  0  0  0  0
    5.1776   -8.4796    0.0000 H   0  0  0  0  0  0  0  0  0  0  0  0
  1  2  1  0  0  0  0
  2  3  1  0  0  0  0
  3  4  1  0  0  0  0
  4  5  1  0  0  0  0
  6  5  1  6  0  0  0
  6  7  1  0  0  0  0
  7  8  1  0  0  0  0
  8  9  1  0  0  0  0
  9 10  1  0  0  0  0
 10 11  1  0  0  0  0
 11 12  1  0  0  0  0
 12 13  1  0  0  0  0
 13 14  1  0  0  0  0
 14 15  1  0  0  0  0
 15 16  1  0  0  0  0
 16 17  1  0  0  0  0
 17 18  1  0  0  0  0
 18 19  1  0  0  0  0
 19 20  1  0  0  0  0
  1 20  1  0  0  0  0
  1 12  1  0  0  0  0
 13 18  1  0  0  0  0
  2  9  1  0  0  0  0
  4  8  1  0  0  0  0
 22 23  1  0  0  0  0
 23 24  1  0  0  0  0
 24 25  1  0  0  0  0
 21 25  1  0  0  0  0
  6 21  1  0  0  0  0
  6 22  1  0  0  0  0
 16 26  1  1  0  0  0
 13 27  1  1  0  0  0
  9 28  1  1  0  0  0
  7 29  1  6  0  0  0
 24 30  1  6  0  0  0
  1 31  1  1  0  0  0
  2 32  1  6  0  0  0
  4 33  1  6  0  0  0
  8 34  1  6  0  0  0
 12 35  1  6  0  0  0
 18 36  1  6  0  0  0
M  END
>  <cdx:fragmentId>
5

$$$$
