99512.cdx
  Mrv1902 05222410222D          

 29 31  0  0  0  0            999 V2000
    6.6302   -9.3732    0.0000 C   0  0  0  0  0  0  0  0  0  0  0  0
    7.3486   -9.7789    0.0000 O   0  0  0  0  0  0  0  0  0  0  0  0
    8.0591   -9.3597    0.0000 C   0  0  0  0  0  0  0  0  0  0  0  0
    8.0513   -8.5347    0.0000 C   0  0  0  0  0  0  0  0  0  0  0  0
    7.3329   -8.1290    0.0000 C   0  0  0  0  0  0  0  0  0  0  0  0
    6.6224   -8.5483    0.0000 C   0  0  0  0  0  0  0  0  0  0  0  0
    8.7774   -9.7654    0.0000 C   0  0  0  0  0  0  0  0  0  0  0  0
    9.4880   -9.3461    0.0000 C   0  0  0  0  0  0  0  0  0  0  0  0
    9.4801   -8.5212    0.0000 C   0  0  0  0  0  0  0  0  0  0  0  0
    8.7618   -8.1155    0.0000 C   0  0  0  0  0  0  0  0  0  0  0  0
   10.1907   -8.1019    0.0000 C   0  0  0  0  0  0  0  0  0  0  0  0
   10.1829   -7.2769    0.0000 C   0  0  0  0  0  0  0  0  0  0  0  0
    9.4645   -6.8712    0.0000 C   0  0  0  0  0  0  0  0  0  0  0  0
    8.7540   -7.2905    0.0000 O   0  0  0  0  0  0  0  0  0  0  0  0
    5.9040   -8.1425    0.0000 O   0  0  0  0  0  0  0  0  0  0  0  0
    7.3251   -7.3040    0.0000 O   0  0  0  0  0  0  0  0  0  0  0  0
    6.2245  -10.0916    0.0000 C   0  0  0  0  0  0  0  0  0  0  0  0
    5.8052   -9.3810    0.0000 C   0  0  0  0  0  0  0  0  0  0  0  0
    9.4567   -6.0463    0.0000 O   0  0  0  0  0  0  0  0  0  0  0  0
    6.6232   -6.9008    0.0000 C   0  0  0  0  0  0  0  0  0  0  0  0
    5.9099   -7.3153    0.0000 O   0  0  0  0  0  0  0  0  0  0  0  0
    6.6209   -6.0758    0.0000 C   0  0  0  0  0  0  0  0  0  0  0  0
    5.1935   -8.5618    0.0000 C   0  0  0  0  0  0  0  0  0  0  0  0
    4.4752   -8.1561    0.0000 C   0  0  0  0  0  0  0  0  0  0  0  0
    5.2013   -9.3868    0.0000 O   0  0  0  0  0  0  0  0  0  0  0  0
    3.7646   -8.5754    0.0000 C   0  0  0  0  0  0  0  0  0  0  0  0
    4.4673   -7.3311    0.0000 C   0  0  0  0  0  0  0  0  0  0  0  0
    3.0463   -8.1696    0.0000 C   0  0  0  0  0  0  0  0  0  0  0  0
    5.9053   -5.6653    0.0000 C   0  0  0  0  0  0  0  0  0  0  0  0
  1  2  1  0  0  0  0
  2  3  1  0  0  0  0
  3  4  2  0  0  0  0
  4  5  1  0  0  0  0
  5  6  1  0  0  0  0
  6  1  1  0  0  0  0
  3  7  1  0  0  0  0
  7  8  2  0  0  0  0
  8  9  1  0  0  0  0
  9 10  2  0  0  0  0
 10  4  1  0  0  0  0
  9 11  1  0  0  0  0
 11 12  2  0  0  0  0
 12 13  1  0  0  0  0
 13 14  1  0  0  0  0
 14 10  1  0  0  0  0
  6 15  1  0  0  0  0
  5 16  1  0  0  0  0
  1 17  1  0  0  0  0
  1 18  1  0  0  0  0
 13 19  2  0  0  0  0
 20 22  1  0  0  0  0
 20 21  2  0  0  0  0
 20 16  1  0  0  0  0
 15 23  1  0  0  0  0
 23 24  1  0  0  0  0
 23 25  2  0  0  0  0
 24 26  1  0  0  0  0
 24 27  1  0  0  0  0
 26 28  1  0  0  0  0
 22 29  1  0  0  0  0
M  END
>  <cdx:fragmentId>
5

$$$$
