99529.cdx
  Mrv1902 05222410212D          

 52 56  0  0  0  0            999 V2000
    3.7312   -9.9688    0.0000 C   0  0  0  0  0  0  0  0  0  0  0  0
    3.7312  -10.7937    0.0000 C   0  0  2  0  0  0  0  0  0  0  0  0
    4.4456  -11.2062    0.0000 O   0  0  0  0  0  0  0  0  0  0  0  0
    5.1601  -10.7937    0.0000 C   0  0  2  0  0  0  0  0  0  0  0  0
    5.1601   -9.9688    0.0000 C   0  0  1  0  0  0  0  0  0  0  0  0
    4.4456   -9.5563    0.0000 C   0  0  1  0  0  0  0  0  0  0  0  0
    3.0167   -9.5563    0.0000 O   0  0  0  0  0  0  0  0  0  0  0  0
    4.4456   -8.7313    0.0000 O   0  0  0  0  0  0  0  0  0  0  0  0
    5.8746   -9.5563    0.0000 O   0  0  0  0  0  0  0  0  0  0  0  0
    3.7312  -11.6187    0.0000 O   0  0  0  0  0  0  0  0  0  0  0  0
    5.1601  -11.6187    0.0000 C   0  0  1  0  0  0  0  0  0  0  0  0
    5.7435  -12.2021    0.0000 C   0  0  0  0  0  0  0  0  0  0  0  0
    6.5404  -11.9886    0.0000 O   0  0  0  0  0  0  0  0  0  0  0  0
    3.0167  -11.2062    0.0000 C   0  0  0  0  0  0  0  0  0  0  0  0
    3.0167  -12.0313    0.0000 O   0  0  0  0  0  0  0  0  0  0  0  0
    2.3022  -10.7937    0.0000 O   0  0  0  0  0  0  0  0  0  0  0  0
    3.7366   -8.3031    0.0000 C   0  0  0  0  0  0  0  0  0  0  0  0
    3.7401   -7.4781    0.0000 C   0  0  0  0  0  0  0  0  0  0  0  0
    3.0204   -8.7127    0.0000 O   0  0  0  0  0  0  0  0  0  0  0  0
    3.0273   -7.0627    0.0000 C   0  0  0  0  0  0  0  0  0  0  0  0
    3.0307   -6.2377    0.0000 C   0  0  0  0  0  0  0  0  0  0  0  0
    3.7469   -5.8282    0.0000 C   0  0  0  0  0  0  0  0  0  0  0  0
    3.7504   -5.0032    0.0000 C   0  0  0  0  0  0  0  0  0  0  0  0
    3.0376   -4.5877    0.0000 C   0  0  0  0  0  0  0  0  0  0  0  0
    2.3214   -4.9972    0.0000 C   0  0  0  0  0  0  0  0  0  0  0  0
    2.3180   -5.8222    0.0000 C   0  0  0  0  0  0  0  0  0  0  0  0
    3.0411   -3.7627    0.0000 O   0  0  0  0  0  0  0  0  0  0  0  0
    4.4666   -4.5937    0.0000 O   0  0  0  0  0  0  0  0  0  0  0  0
    5.8874   -8.7397    0.0000 C   0  0  0  0  0  0  0  0  0  0  0  0
    6.6019   -8.3272    0.0000 C   0  0  0  0  0  0  0  0  0  0  0  0
    5.1729   -8.3272    0.0000 O   0  0  0  0  0  0  0  0  0  0  0  0
    6.6019   -7.5022    0.0000 C   0  0  0  0  0  0  0  0  0  0  0  0
    7.3164   -7.0897    0.0000 C   0  0  0  0  0  0  0  0  0  0  0  0
    8.0308   -7.5022    0.0000 C   0  0  0  0  0  0  0  0  0  0  0  0
    8.7453   -7.0897    0.0000 C   0  0  0  0  0  0  0  0  0  0  0  0
    8.7453   -6.2647    0.0000 C   0  0  0  0  0  0  0  0  0  0  0  0
    8.0308   -5.8522    0.0000 C   0  0  0  0  0  0  0  0  0  0  0  0
    7.3164   -6.2647    0.0000 C   0  0  0  0  0  0  0  0  0  0  0  0
    9.4598   -5.8522    0.0000 O   0  0  0  0  0  0  0  0  0  0  0  0
    9.4598   -7.5022    0.0000 O   0  0  0  0  0  0  0  0  0  0  0  0
   10.5760  -11.2109    0.0000 O   0  0  0  0  0  0  0  0  0  0  0  0
   11.6612  -12.4539    0.0000 O   0  0  0  0  0  0  0  0  0  0  0  0
    9.7752  -13.5528    0.0000 C   0  0  0  0  0  0  0  0  0  0  0  0
   10.5847  -13.3937    0.0000 C   0  0  0  0  0  0  0  0  0  0  0  0
   10.8516  -12.6130    0.0000 C   0  0  0  0  0  0  0  0  0  0  0  0
   10.3091  -11.9916    0.0000 C   0  0  0  0  0  0  0  0  0  0  0  0
    9.4996  -12.1507    0.0000 C   0  0  0  0  0  0  0  0  0  0  0  0
    9.2326  -12.9313    0.0000 C   0  0  0  0  0  0  0  0  0  0  0  0
    8.4231  -13.0904    0.0000 C   0  0  0  0  0  0  0  0  0  0  0  0
    6.8041  -13.4087    0.0000 O   0  0  0  0  0  0  0  0  0  0  0  0
    7.8806  -12.4690    0.0000 C   0  0  0  0  0  0  0  0  0  0  0  0
    7.0711  -12.6281    0.0000 C   0  0  0  0  0  0  0  0  0  0  0  0
  1  2  1  0  0  0  0
  2  3  1  1  0  0  0
  4  3  1  1  0  0  0
  4  5  1  0  0  0  0
  5  6  1  0  0  0  0
  6  1  1  0  0  0  0
  1  7  1  0  0  0  0
  6  8  1  6  0  0  0
  5  9  1  1  0  0  0
  2 10  1  0  0  0  0
  4 11  1  0  0  0  0
 10 11  1  0  0  0  0
 11 12  1  6  0  0  0
 12 13  1  0  0  0  0
  2 14  1  0  0  0  0
 14 15  2  0  0  0  0
 14 16  1  0  0  0  0
 17 18  1  0  0  0  0
 17 19  2  0  0  0  0
 18 20  2  0  0  0  0
 20 21  1  0  0  0  0
 21 22  2  0  0  0  0
 22 23  1  0  0  0  0
 23 24  2  0  0  0  0
 24 25  1  0  0  0  0
 25 26  2  0  0  0  0
 26 21  1  0  0  0  0
 24 27  1  0  0  0  0
 23 28  1  0  0  0  0
 29 30  1  0  0  0  0
 29 31  2  0  0  0  0
 30 32  2  0  0  0  0
 32 33  1  0  0  0  0
 33 34  2  0  0  0  0
 34 35  1  0  0  0  0
 35 36  2  0  0  0  0
 36 37  1  0  0  0  0
 37 38  2  0  0  0  0
 38 33  1  0  0  0  0
 36 39  1  0  0  0  0
 35 40  1  0  0  0  0
 46 41  1  0  0  0  0
 45 42  1  0  0  0  0
 43 48  1  0  0  0  0
 44 43  2  0  0  0  0
 45 44  1  0  0  0  0
 46 45  2  0  0  0  0
 47 46  1  0  0  0  0
 48 47  2  0  0  0  0
 49 48  1  0  0  0  0
 51 49  2  0  0  0  0
 52 50  2  0  0  0  0
 52 51  1  0  0  0  0
 17  8  1  0  0  0  0
 29  9  1  0  0  0  0
 52 13  1  0  0  0  0
M  END
>  <cdx:fragmentId>
5

$$$$
