99523.cdx
  Mrv1902 05222410232D          

 19 20  0  0  0  0            999 V2000
    6.7241   -7.5625    0.0000 C   0  0  2  0  0  0  0  0  0  0  0  0
    6.7241   -8.3875    0.0000 C   0  0  1  0  0  0  0  0  0  0  0  0
    7.3691   -8.9019    0.0000 C   0  0  1  0  0  0  0  0  0  0  0  0
    8.1734   -8.7183    0.0000 C   0  0  2  0  0  0  0  0  0  0  0  0
    8.5314   -7.9750    0.0000 C   0  0  0  0  0  0  0  0  0  0  0  0
    8.1734   -7.2317    0.0000 C   0  0  0  0  0  0  0  0  0  0  0  0
    7.3691   -7.0481    0.0000 C   0  0  1  0  0  0  0  0  0  0  0  0
    5.9395   -7.3076    0.0000 C   0  0  0  0  0  0  0  0  0  0  0  0
    5.4545   -7.9750    0.0000 C   0  0  0  0  0  0  0  0  0  0  0  0
    5.9395   -8.6424    0.0000 C   0  0  1  0  0  0  0  0  0  0  0  0
    5.6845   -9.4271    0.0000 C   0  0  0  0  0  0  0  0  0  0  0  0
    6.2366  -10.0402    0.0000 C   0  0  0  0  0  0  0  0  0  0  0  0
    4.8776   -9.5986    0.0000 C   0  0  0  0  0  0  0  0  0  0  0  0
    6.6624   -6.7398    0.0000 C   0  0  0  0  0  0  0  0  0  0  0  0
    6.6624   -9.2102    0.0000 H   0  0  0  0  0  0  0  0  0  0  0  0
    7.1855   -6.2438    0.0000 O   0  0  0  0  0  0  0  0  0  0  0  0
    8.1734   -9.5433    0.0000 O   0  0  0  0  0  0  0  0  0  0  0  0
    7.1855   -9.7062    0.0000 O   0  0  0  0  0  0  0  0  0  0  0  0
    8.9703   -8.9318    0.0000 C   0  0  0  0  0  0  0  0  0  0  0  0
  1  2  1  0  0  0  0
  2  3  1  0  0  0  0
  3  4  1  0  0  0  0
  4  5  1  0  0  0  0
  5  6  1  0  0  0  0
  6  7  1  0  0  0  0
  7  1  1  0  0  0  0
  1  8  1  0  0  0  0
  8  9  1  0  0  0  0
  9 10  1  0  0  0  0
 10  2  1  0  0  0  0
 10 11  1  6  0  0  0
 11 12  1  0  0  0  0
 11 13  1  0  0  0  0
  1 14  1  6  0  0  0
  2 15  1  6  0  0  0
  7 16  1  6  0  0  0
  4 17  1  6  0  0  0
  3 18  1  1  0  0  0
  4 19  1  1  0  0  0
M  END
>  <cdx:fragmentId>
5

$$$$
