99522.cdx
  Mrv1902 05222410232D          

 39 42  0  0  0  0            999 V2000
   12.7382   -6.0189    0.0000 C   0  0  0  0  0  0  0  0  0  0  0  0
   12.5138   -6.8128    0.0000 O   0  0  0  0  0  0  0  0  0  0  0  0
   12.0649   -8.4006    0.0000 O   0  0  0  0  0  0  0  0  0  0  0  0
   10.1146   -7.4205    0.0000 C   0  0  0  0  0  0  0  0  0  0  0  0
   10.6899   -8.0118    0.0000 C   0  0  0  0  0  0  0  0  0  0  0  0
   11.4896   -7.8092    0.0000 C   0  0  0  0  0  0  0  0  0  0  0  0
   11.7140   -7.0154    0.0000 C   0  0  0  0  0  0  0  0  0  0  0  0
   11.1387   -6.4241    0.0000 C   0  0  0  0  0  0  0  0  0  0  0  0
   10.3390   -6.6266    0.0000 C   0  0  0  0  0  0  0  0  0  0  0  0
    9.7637   -6.0353    0.0000 C   0  0  0  0  0  0  0  0  0  0  0  0
    9.3148   -7.6231    0.0000 O   0  0  0  0  0  0  0  0  0  0  0  0
    8.9639   -6.2379    0.0000 C   0  0  0  0  0  0  0  0  0  0  0  0
    8.7395   -7.0318    0.0000 C   0  0  0  0  0  0  0  0  0  0  0  0
    4.7146  -10.2925    0.0000 O   0  0  0  0  0  0  0  0  0  0  0  0
    5.4233  -10.7148    0.0000 C   0  0  2  0  0  0  0  0  0  0  0  0
    5.4120  -11.5397    0.0000 C   0  0  1  0  0  0  0  0  0  0  0  0
    4.6920  -11.9424    0.0000 C   0  0  2  0  0  0  0  0  0  0  0  0
    3.9832  -11.5201    0.0000 C   0  0  1  0  0  0  0  0  0  0  0  0
    3.9945  -10.6952    0.0000 C   0  0  1  0  0  0  0  0  0  0  0  0
    6.1208  -11.9620    0.0000 O   0  0  0  0  0  0  0  0  0  0  0  0
    4.6807  -12.7673    0.0000 O   0  0  0  0  0  0  0  0  0  0  0  0
    3.2632  -11.9228    0.0000 O   0  0  0  0  0  0  0  0  0  0  0  0
    3.2858  -10.2729    0.0000 C   0  0  0  0  0  0  0  0  0  0  0  0
    2.5657  -10.6756    0.0000 O   0  0  0  0  0  0  0  0  0  0  0  0
    6.1434  -10.3121    0.0000 O   0  0  0  0  0  0  0  0  0  0  0  0
    6.1547   -9.4872    0.0000 C   0  0  1  0  0  0  0  0  0  0  0  0
    6.8747   -9.0845    0.0000 C   0  0  1  0  0  0  0  0  0  0  0  0
    6.8861   -8.2596    0.0000 C   0  0  1  0  0  0  0  0  0  0  0  0
    6.1773   -7.8373    0.0000 C   0  0  0  0  0  0  0  0  0  0  0  0
    5.4573   -8.2400    0.0000 C   0  0  0  0  0  0  0  0  0  0  0  0
    5.4459   -9.0649    0.0000 O   0  0  0  0  0  0  0  0  0  0  0  0
    7.6741   -8.0154    0.0000 C   0  0  1  0  0  0  0  0  0  0  0  0
    8.1498   -8.6895    0.0000 C   0  0  0  0  0  0  0  0  0  0  0  0
    7.6558   -9.3502    0.0000 C   0  0  1  0  0  0  0  0  0  0  0  0
    7.4732  -10.1547    0.0000 C   0  0  0  0  0  0  0  0  0  0  0  0
    8.2613   -9.9106    0.0000 O   0  0  0  0  0  0  0  0  0  0  0  0
    7.9398   -7.2344    0.0000 O   0  0  0  0  0  0  0  0  0  0  0  0
    6.8861   -7.4346    0.0000 H   0  0  0  0  0  0  0  0  0  0  0  0
    6.8747   -9.9095    0.0000 H   0  0  0  0  0  0  0  0  0  0  0  0
  2  1  1  0  0  0  0
  7  2  1  0  0  0  0
  6  3  1  0  0  0  0
  4  9  1  0  0  0  0
  5  4  2  0  0  0  0
  6  5  1  0  0  0  0
  7  6  2  0  0  0  0
  8  7  1  0  0  0  0
  9  8  2  0  0  0  0
 10  9  1  0  0  0  0
 12 10  2  0  0  0  0
 13 11  2  0  0  0  0
 13 12  1  0  0  0  0
 37 13  1  0  0  0  0
 14 15  1  0  0  0  0
 15 16  1  0  0  0  0
 16 17  1  0  0  0  0
 17 18  1  0  0  0  0
 18 19  1  0  0  0  0
 14 19  1  0  0  0  0
 16 20  1  6  0  0  0
 17 21  1  1  0  0  0
 18 22  1  6  0  0  0
 23 24  1  0  0  0  0
 19 23  1  1  0  0  0
 26 27  1  0  0  0  0
 27 28  1  0  0  0  0
 28 29  1  0  0  0  0
 29 30  2  0  0  0  0
 30 31  1  0  0  0  0
 26 31  1  0  0  0  0
 32 33  1  0  0  0  0
 33 34  1  0  0  0  0
 34 27  1  0  0  0  0
 32 28  1  0  0  0  0
 34 35  1  0  0  0  0
 34 36  1  6  0  0  0
 32 37  1  6  0  0  0
 26 25  1  6  0  0  0
 15 25  1  1  0  0  0
 28 38  1  6  0  0  0
 27 39  1  6  0  0  0
M  END
>  <cdx:fragmentId>
29

$$$$
