99528.cdx
  Mrv1902 05222410212D          

 16 17  0  0  0  0            999 V2000
    6.4119   -4.5518    0.0000 C   0  0  0  0  0  0  0  0  0  0  0  0
    5.9994   -5.2663    0.0000 C   0  0  0  0  0  0  0  0  0  0  0  0
    6.4119   -5.9807    0.0000 C   0  0  0  0  0  0  0  0  0  0  0  0
    7.2369   -5.9807    0.0000 C   0  0  0  0  0  0  0  0  0  0  0  0
    7.6494   -5.2663    0.0000 C   0  0  0  0  0  0  0  0  0  0  0  0
    7.2369   -4.5518    0.0000 C   0  0  0  0  0  0  0  0  0  0  0  0
    5.9994   -6.6952    0.0000 C   0  0  0  0  0  0  0  0  0  0  0  0
    6.4119   -7.4097    0.0000 C   0  0  0  0  0  0  0  0  0  0  0  0
    7.2369   -7.4097    0.0000 C   0  0  0  0  0  0  0  0  0  0  0  0
    7.6494   -6.6952    0.0000 C   0  0  0  0  0  0  0  0  0  0  0  0
    5.1744   -5.2663    0.0000 C   0  0  0  0  0  0  0  0  0  0  0  0
    8.4744   -5.2663    0.0000 C   0  0  0  0  0  0  0  0  0  0  0  0
    8.8869   -4.5518    0.0000 C   0  0  0  0  0  0  0  0  0  0  0  0
    8.8869   -5.9807    0.0000 C   0  0  0  0  0  0  0  0  0  0  0  0
    7.6494   -8.1241    0.0000 C   0  0  0  0  0  0  0  0  0  0  0  0
    5.9994   -8.1241    0.0000 O   0  0  0  0  0  0  0  0  0  0  0  0
  1  2  2  0  0  0  0
  2  3  1  0  0  0  0
  3  4  1  0  0  0  0
  4  5  1  0  0  0  0
  5  6  1  0  0  0  0
  6  1  1  0  0  0  0
  3  7  1  0  0  0  0
  7  8  1  0  0  0  0
  8  9  1  0  0  0  0
  9 10  2  0  0  0  0
 10  4  1  0  0  0  0
  2 11  1  0  0  0  0
  5 12  1  0  0  0  0
 12 13  1  0  0  0  0
 12 14  1  0  0  0  0
  9 15  1  0  0  0  0
  8 16  2  0  0  0  0
M  END
>  <cdx:fragmentId>
5

$$$$
