99524.cdx
  Mrv1902 05222410242D          

 14 16  0  0  0  0            999 V2000
    4.8445   -8.8866    0.0000 O   0  0  0  0  0  0  0  0  0  0  0  0
    7.6564   -7.2416    0.0000 C   0  0  0  0  0  0  0  0  0  0  0  0
    8.3716   -6.8303    0.0000 C   0  0  0  0  0  0  0  0  0  0  0  0
    9.0853   -7.2441    0.0000 C   0  0  0  0  0  0  0  0  0  0  0  0
    9.0839   -8.0691    0.0000 C   0  0  0  0  0  0  0  0  0  0  0  0
    6.9383   -9.3028    0.0000 C   0  0  0  0  0  0  0  0  0  0  0  0
    7.6520   -9.7166    0.0000 C   0  0  0  0  0  0  0  0  0  0  0  0
    8.3672   -9.3053    0.0000 C   0  0  0  0  0  0  0  0  0  0  0  0
    8.3687   -8.4803    0.0000 C   0  0  0  0  0  0  0  0  0  0  0  0
    7.6549   -8.0666    0.0000 C   0  0  0  0  0  0  0  0  0  0  0  0
    6.9397   -8.4778    0.0000 C   0  0  0  0  0  0  0  0  0  0  0  0
    6.1556   -8.2215    0.0000 O   0  0  0  0  0  0  0  0  0  0  0  0
    5.6695   -8.8881    0.0000 C   0  0  0  0  0  0  0  0  0  0  0  0
    6.1532   -9.5564    0.0000 C   0  0  0  0  0  0  0  0  0  0  0  0
 13  1  2  0  0  0  0
  5  9  2  0  0  0  0
  2 10  2  0  0  0  0
  3  2  1  0  0  0  0
  4  3  2  0  0  0  0
  5  4  1  0  0  0  0
 14  6  1  0  0  0  0
 11  6  2  0  0  0  0
  7  6  1  0  0  0  0
  8  7  2  0  0  0  0
  9  8  1  0  0  0  0
 10  9  1  0  0  0  0
 11 10  1  0  0  0  0
 12 11  1  0  0  0  0
 13 12  1  0  0  0  0
 14 13  1  0  0  0  0
M  END
>  <cdx:fragmentId>
5

$$$$
