99526.cdx
  Mrv1902 05222410252D          

 17 16  0  0  0  0            999 V2000
    6.9731   -7.0967    0.0000 C   0  0  0  0  0  0  0  0  0  0  0  0
    6.1481   -7.0930    0.0000 C   0  0  0  0  0  0  0  0  0  0  0  0
    5.7388   -6.3767    0.0000 C   0  0  0  0  0  0  0  0  0  0  0  0
    4.9138   -6.3730    0.0000 C   0  0  0  0  0  0  0  0  0  0  0  0
    7.3888   -6.3840    0.0000 O   0  0  0  0  0  0  0  0  0  0  0  0
    5.2447   -9.0528    0.0000 C   0  0  0  0  0  0  0  0  0  0  0  0
    5.9592   -8.6403    0.0000 C   0  0  0  0  0  0  0  0  0  0  0  0
    6.6737   -9.0528    0.0000 C   0  0  0  0  0  0  0  0  0  0  0  0
    7.3881   -8.6403    0.0000 C   0  0  2  0  0  0  0  0  0  0  0  0
    8.1026   -9.0528    0.0000 C   0  0  0  0  0  0  0  0  0  0  0  0
    8.8171   -8.6403    0.0000 C   0  0  0  0  0  0  0  0  0  0  0  0
    8.8171   -7.8153    0.0000 C   0  0  0  0  0  0  0  0  0  0  0  0
    7.3881   -7.8153    0.0000 O   0  0  0  0  0  0  0  0  0  0  0  0
    9.5316   -9.0528    0.0000 C   0  0  0  0  0  0  0  0  0  0  0  0
    7.0862   -9.7673    0.0000 C   0  0  0  0  0  0  0  0  0  0  0  0
    6.2612   -9.7673    0.0000 C   0  0  0  0  0  0  0  0  0  0  0  0
    6.1545   -5.6640    0.0000 C   0  0  0  0  0  0  0  0  0  0  0  0
  1  2  1  0  0  0  0
  2  3  1  0  0  0  0
  3  4  1  0  0  0  0
  1  5  2  0  0  0  0
  6  7  2  0  0  0  0
  7  8  1  0  0  0  0
  8  9  1  0  0  0  0
  9 10  1  0  0  0  0
 10 11  2  0  0  0  0
 11 12  1  0  0  0  0
  9 13  1  1  0  0  0
 11 14  1  0  0  0  0
  8 15  1  0  0  0  0
  8 16  1  0  0  0  0
  1 13  1  0  0  0  0
  3 17  1  0  0  0  0
M  END
>  <cdx:fragmentId>
28

$$$$
