99527.cdx
  Mrv1902 05222410252D          

 21 21  0  0  0  0            999 V2000
    5.9460   -9.7128    0.0000 C   0  0  0  0  0  0  0  0  0  0  0  0
    6.6605   -9.3003    0.0000 C   0  0  0  0  0  0  0  0  0  0  0  0
    7.3749   -9.7128    0.0000 C   0  0  0  0  0  0  0  0  0  0  0  0
    8.0894   -9.3003    0.0000 C   0  0  2  0  0  0  0  0  0  0  0  0
    8.8039   -9.7128    0.0000 C   0  0  0  0  0  0  0  0  0  0  0  0
    9.5183   -9.3003    0.0000 C   0  0  0  0  0  0  0  0  0  0  0  0
    9.5183   -8.4753    0.0000 C   0  0  0  0  0  0  0  0  0  0  0  0
    8.0894   -8.4753    0.0000 O   0  0  0  0  0  0  0  0  0  0  0  0
   10.2328   -9.7128    0.0000 C   0  0  0  0  0  0  0  0  0  0  0  0
    7.7874  -10.4273    0.0000 C   0  0  0  0  0  0  0  0  0  0  0  0
    6.9624  -10.4273    0.0000 C   0  0  0  0  0  0  0  0  0  0  0  0
    7.6748   -7.7641    0.0000 C   0  0  0  0  0  0  0  0  0  0  0  0
    6.8498   -7.7630    0.0000 C   0  0  0  0  0  0  0  0  0  0  0  0
    6.4382   -7.0480    0.0000 C   0  0  0  0  0  0  0  0  0  0  0  0
    8.0882   -7.0501    0.0000 O   0  0  0  0  0  0  0  0  0  0  0  0
    5.6132   -7.0470    0.0000 C   0  0  0  0  0  0  0  0  0  0  0  0
    5.1998   -7.7609    0.0000 C   0  0  0  0  0  0  0  0  0  0  0  0
    4.3748   -7.7599    0.0000 C   0  0  0  0  0  0  0  0  0  0  0  0
    3.9632   -7.0449    0.0000 C   0  0  0  0  0  0  0  0  0  0  0  0
    4.3766   -6.3310    0.0000 C   0  0  0  0  0  0  0  0  0  0  0  0
    5.2016   -6.3320    0.0000 C   0  0  0  0  0  0  0  0  0  0  0  0
  1  2  2  0  0  0  0
  2  3  1  0  0  0  0
  3  4  1  0  0  0  0
  4  5  1  0  0  0  0
  5  6  2  0  0  0  0
  6  7  1  0  0  0  0
  4  8  1  1  0  0  0
  6  9  1  0  0  0  0
  3 10  1  0  0  0  0
  3 11  1  0  0  0  0
 12 13  1  0  0  0  0
 13 14  1  0  0  0  0
 12 15  2  0  0  0  0
 16 17  1  0  0  0  0
 17 18  2  0  0  0  0
 18 19  1  0  0  0  0
 19 20  2  0  0  0  0
 20 21  1  0  0  0  0
 16 21  2  0  0  0  0
 14 16  1  0  0  0  0
 12  8  1  0  0  0  0
M  END
>  <cdx:fragmentId>
28

$$$$
