99521.cdx
  Mrv1902 05222410242D          

 28 30  0  0  0  0            999 V2000
    3.9924   -7.6175    0.0000 C   0  0  0  0  0  0  0  0  0  0  0  0
    3.9924   -8.4425    0.0000 C   0  0  0  0  0  0  0  0  0  0  0  0
    4.7069   -8.8550    0.0000 C   0  0  0  0  0  0  0  0  0  0  0  0
    5.4214   -8.4425    0.0000 C   0  0  0  0  0  0  0  0  0  0  0  0
    5.4214   -7.6175    0.0000 C   0  0  0  0  0  0  0  0  0  0  0  0
    4.7069   -7.2050    0.0000 C   0  0  0  0  0  0  0  0  0  0  0  0
    3.2780   -7.2050    0.0000 O   0  0  0  0  0  0  0  0  0  0  0  0
    3.2780   -8.8550    0.0000 O   0  0  0  0  0  0  0  0  0  0  0  0
    6.1348   -8.8688    0.0000 C   0  0  0  0  0  0  0  0  0  0  0  0
    6.8493   -8.4563    0.0000 O   0  0  0  0  0  0  0  0  0  0  0  0
    7.5637   -8.8688    0.0000 C   0  0  0  0  0  0  0  0  0  0  0  0
    8.2782   -8.4563    0.0000 C   0  0  0  0  0  0  0  0  0  0  0  0
    8.9927   -8.8688    0.0000 C   0  0  0  0  0  0  0  0  0  0  0  0
    9.7071   -8.4563    0.0000 C   0  0  0  0  0  0  0  0  0  0  0  0
   10.4216   -8.8688    0.0000 C   0  0  0  0  0  0  0  0  0  0  0  0
   11.1361   -8.4563    0.0000 C   0  0  0  0  0  0  0  0  0  0  0  0
   11.1361   -7.6313    0.0000 C   0  0  0  0  0  0  0  0  0  0  0  0
   10.4216   -7.2188    0.0000 C   0  0  0  0  0  0  0  0  0  0  0  0
    9.7071   -7.6313    0.0000 C   0  0  0  0  0  0  0  0  0  0  0  0
   11.8506   -7.2188    0.0000 O   0  0  0  0  0  0  0  0  0  0  0  0
    2.5635   -8.4425    0.0000 C   0  0  0  0  0  0  0  0  0  0  0  0
    6.1286   -9.6937    0.0000 C   0  0  0  0  0  0  0  0  0  0  0  0
    7.5637   -9.6937    0.0000 C   0  0  0  0  0  0  0  0  0  0  0  0
    6.8431  -10.1062    0.0000 C   0  0  0  0  0  0  0  0  0  0  0  0
    6.8415  -10.9312    0.0000 O   0  0  0  0  0  0  0  0  0  0  0  0
    4.7069   -6.3800    0.0000 O   0  0  0  0  0  0  0  0  0  0  0  0
   10.4216   -6.3937    0.0000 O   0  0  0  0  0  0  0  0  0  0  0  0
    9.7071   -5.9813    0.0000 C   0  0  0  0  0  0  0  0  0  0  0  0
  1  2  2  0  0  0  0
  2  3  1  0  0  0  0
  3  4  2  0  0  0  0
  4  5  1  0  0  0  0
  5  6  2  0  0  0  0
  6  1  1  0  0  0  0
  1  7  1  0  0  0  0
  2  8  1  0  0  0  0
  9 10  1  0  0  0  0
 10 11  1  0  0  0  0
 11 12  1  0  0  0  0
 12 13  1  0  0  0  0
 13 14  1  0  0  0  0
 14 15  2  0  0  0  0
 15 16  1  0  0  0  0
 16 17  2  0  0  0  0
 17 18  1  0  0  0  0
 18 19  2  0  0  0  0
 19 14  1  0  0  0  0
 17 20  1  0  0  0  0
  8 21  1  0  0  0  0
  9  4  1  0  0  0  0
  9 22  1  0  0  0  0
 11 23  1  0  0  0  0
 22 24  1  0  0  0  0
 24 23  1  0  0  0  0
 24 25  1  0  0  0  0
  6 26  1  0  0  0  0
 18 27  1  0  0  0  0
 27 28  1  0  0  0  0
M  END
>  <cdx:fragmentId>
5

$$$$
