99537.cdx
  Mrv1902 05222410232D          

 28 30  0  0  0  0            999 V2000
    4.2262   -6.9575    0.0000 C   0  0  0  0  0  0  0  0  0  0  0  0
    4.2262   -7.7825    0.0000 C   0  0  2  0  0  0  0  0  0  0  0  0
    4.9406   -8.1950    0.0000 O   0  0  0  0  0  0  0  0  0  0  0  0
    5.6551   -7.7825    0.0000 C   0  0  2  0  0  0  0  0  0  0  0  0
    5.6551   -6.9575    0.0000 C   0  0  1  0  0  0  0  0  0  0  0  0
    4.9406   -6.5450    0.0000 C   0  0  1  0  0  0  0  0  0  0  0  0
    4.9406   -5.7200    0.0000 O   0  0  0  0  0  0  0  0  0  0  0  0
    6.3696   -6.5450    0.0000 O   0  0  0  0  0  0  0  0  0  0  0  0
    4.2262   -8.6075    0.0000 O   0  0  0  0  0  0  0  0  0  0  0  0
    5.6551   -8.6075    0.0000 C   0  0  1  0  0  0  0  0  0  0  0  0
    6.2385   -9.1909    0.0000 C   0  0  0  0  0  0  0  0  0  0  0  0
    7.0354   -8.9773    0.0000 O   0  0  0  0  0  0  0  0  0  0  0  0
    3.5117   -8.1950    0.0000 C   0  0  0  0  0  0  0  0  0  0  0  0
    3.5117   -9.0200    0.0000 O   0  0  0  0  0  0  0  0  0  0  0  0
    2.7972   -7.7825    0.0000 O   0  0  0  0  0  0  0  0  0  0  0  0
   12.1505   -9.5014    0.0000 O   0  0  0  0  0  0  0  0  0  0  0  0
   10.2520  -10.5786    0.0000 C   0  0  0  0  0  0  0  0  0  0  0  0
   11.0633  -10.4287    0.0000 C   0  0  0  0  0  0  0  0  0  0  0  0
   11.3392   -9.6512    0.0000 C   0  0  0  0  0  0  0  0  0  0  0  0
   10.8038   -9.0235    0.0000 C   0  0  0  0  0  0  0  0  0  0  0  0
    9.9925   -9.1734    0.0000 C   0  0  0  0  0  0  0  0  0  0  0  0
    9.7166   -9.9509    0.0000 C   0  0  0  0  0  0  0  0  0  0  0  0
    8.9054  -10.1007    0.0000 C   0  0  0  0  0  0  0  0  0  0  0  0
    7.2828  -10.4004    0.0000 O   0  0  0  0  0  0  0  0  0  0  0  0
    8.3700   -9.4731    0.0000 C   0  0  0  0  0  0  0  0  0  0  0  0
    7.5587   -9.6229    0.0000 C   0  0  0  0  0  0  0  0  0  0  0  0
   11.0797   -8.2460    0.0000 O   0  0  0  0  0  0  0  0  0  0  0  0
    3.5117   -6.5450    0.0000 O   0  0  0  0  0  0  0  0  0  0  0  0
  1  2  1  0  0  0  0
  2  3  1  1  0  0  0
  4  3  1  1  0  0  0
  4  5  1  0  0  0  0
  5  6  1  0  0  0  0
  6  1  1  0  0  0  0
  6  7  1  6  0  0  0
  5  8  1  1  0  0  0
  2  9  1  0  0  0  0
  4 10  1  0  0  0  0
  9 10  1  0  0  0  0
 10 11  1  6  0  0  0
 11 12  1  0  0  0  0
  2 13  1  0  0  0  0
 13 14  2  0  0  0  0
 13 15  1  0  0  0  0
 19 16  1  0  0  0  0
 17 22  1  0  0  0  0
 18 17  2  0  0  0  0
 19 18  1  0  0  0  0
 20 19  2  0  0  0  0
 21 20  1  0  0  0  0
 22 21  2  0  0  0  0
 23 22  1  0  0  0  0
 25 23  2  0  0  0  0
 26 24  2  0  0  0  0
 26 25  1  0  0  0  0
 26 12  1  0  0  0  0
 20 27  1  0  0  0  0
  1 28  1  0  0  0  0
M  END
>  <cdx:fragmentId>
5

$$$$
