99539.cdx
  Mrv1902 05222410222D          

134146  0  0  0  0            999 V2000
   15.0722   -7.1805    0.0000 C   0  0  0  0  0  0  0  0  0  0  0  0
   15.7867   -6.7680    0.0000 C   0  0  0  0  0  0  0  0  0  0  0  0
   16.5012   -7.1805    0.0000 C   0  0  2  0  0  0  0  0  0  0  0  0
   16.5012   -8.0055    0.0000 C   0  0  0  0  0  0  0  0  0  0  0  0
   15.7867   -8.4180    0.0000 C   0  0  2  0  0  0  0  0  0  0  0  0
   15.7867   -9.2430    0.0000 C   0  0  1  0  0  0  0  0  0  0  0  0
   15.0722   -9.6555    0.0000 C   0  0  0  0  0  0  0  0  0  0  0  0
   14.3577   -9.2430    0.0000 C   0  0  1  0  0  0  0  0  0  0  0  0
   13.6433   -9.6555    0.0000 C   0  0  2  0  0  0  0  0  0  0  0  0
   13.6433  -10.4805    0.0000 C   0  0  0  0  0  0  0  0  0  0  0  0
   12.9288  -10.8930    0.0000 C   0  0  0  0  0  0  0  0  0  0  0  0
   12.2143  -10.4805    0.0000 C   0  0  1  0  0  0  0  0  0  0  0  0
   11.4999  -10.8930    0.0000 C   0  0  0  0  0  0  0  0  0  0  0  0
   10.7854  -10.4805    0.0000 C   0  0  2  0  0  0  0  0  0  0  0  0
   10.7854   -9.6555    0.0000 C   0  0  0  0  0  0  0  0  0  0  0  0
   11.4999   -9.2430    0.0000 C   0  0  0  0  0  0  0  0  0  0  0  0
   12.2143   -9.6555    0.0000 C   0  0  2  0  0  0  0  0  0  0  0  0
   12.9288   -9.2430    0.0000 C   0  0  1  0  0  0  0  0  0  0  0  0
   12.9288   -8.4180    0.0000 C   0  0  0  0  0  0  0  0  0  0  0  0
   13.6433   -8.0055    0.0000 C   0  0  0  0  0  0  0  0  0  0  0  0
   14.3577   -8.4180    0.0000 C   0  0  0  0  0  0  0  0  0  0  0  0
   15.0722   -8.0055    0.0000 C   0  0  2  0  0  0  0  0  0  0  0  0
   16.5012   -8.8305    0.0000 C   0  0  0  0  0  0  0  0  0  0  0  0
   16.5012   -9.6555    0.0000 O   0  0  0  0  0  0  0  0  0  0  0  0
   17.2156   -8.4180    0.0000 O   0  0  0  0  0  0  0  0  0  0  0  0
   11.9124  -11.6075    0.0000 C   0  0  0  0  0  0  0  0  0  0  0  0
   11.0874  -11.6075    0.0000 C   0  0  0  0  0  0  0  0  0  0  0  0
   15.3742   -6.0535    0.0000 C   0  0  0  0  0  0  0  0  0  0  0  0
   16.1992   -6.0535    0.0000 C   0  0  0  0  0  0  0  0  0  0  0  0
   17.2156   -6.7680    0.0000 O   0  0  0  0  0  0  0  0  0  0  0  0
   17.9301   -7.1805    0.0000 C   0  0  0  0  0  0  0  0  0  0  0  0
   18.6446   -6.7680    0.0000 C   0  0  0  0  0  0  0  0  0  0  0  0
   19.3590   -7.1805    0.0000 C   0  0  0  0  0  0  0  0  0  0  0  0
   20.0735   -6.7680    0.0000 C   0  0  0  0  0  0  0  0  0  0  0  0
   20.7880   -7.1805    0.0000 C   0  0  0  0  0  0  0  0  0  0  0  0
   21.5025   -6.7680    0.0000 C   0  0  1  0  0  0  0  0  0  0  0  0
   21.5025   -5.9430    0.0000 C   0  0  0  0  0  0  0  0  0  0  0  0
   20.7880   -5.5305    0.0000 C   0  0  0  0  0  0  0  0  0  0  0  0
   17.9301   -8.0055    0.0000 O   0  0  0  0  0  0  0  0  0  0  0  0
   22.2169   -7.1805    0.0000 O   0  0  0  0  0  0  0  0  0  0  0  0
   23.6459   -7.1805    0.0000 O   0  0  0  0  0  0  0  0  0  0  0  0
   22.9314   -6.7680    0.0000 C   0  0  2  0  0  0  0  0  0  0  0  0
   22.9314   -5.9430    0.0000 C   0  0  1  0  0  0  0  0  0  0  0  0
   23.6459   -5.5305    0.0000 C   0  0  2  0  0  0  0  0  0  0  0  0
   24.3603   -5.9430    0.0000 C   0  0  1  0  0  0  0  0  0  0  0  0
   24.3603   -6.7680    0.0000 C   0  0  1  0  0  0  0  0  0  0  0  0
   25.0748   -7.1805    0.0000 C   0  0  0  0  0  0  0  0  0  0  0  0
   25.0748   -5.5305    0.0000 O   0  0  0  0  0  0  0  0  0  0  0  0
   23.6459   -4.7055    0.0000 O   0  0  0  0  0  0  0  0  0  0  0  0
   22.2169   -5.5305    0.0000 O   0  0  0  0  0  0  0  0  0  0  0  0
   21.5025   -7.5930    0.0000 C   0  0  0  0  0  0  0  0  0  0  0  0
   18.6446   -5.9430    0.0000 C   0  0  0  0  0  0  0  0  0  0  0  0
   10.0709  -10.8930    0.0000 O   0  0  0  0  0  0  0  0  0  0  0  0
    8.6420  -10.8930    0.0000 O   0  0  0  0  0  0  0  0  0  0  0  0
    9.3565  -10.4805    0.0000 C   0  0  2  0  0  0  0  0  0  0  0  0
    9.3565   -9.6555    0.0000 C   0  0  1  0  0  0  0  0  0  0  0  0
    8.6420   -9.2430    0.0000 C   0  0  2  0  0  0  0  0  0  0  0  0
    7.9275   -9.6555    0.0000 C   0  0  1  0  0  0  0  0  0  0  0  0
    7.9275  -10.4805    0.0000 C   0  0  1  0  0  0  0  0  0  0  0  0
    7.2130   -9.2430    0.0000 O   0  0  0  0  0  0  0  0  0  0  0  0
    8.6420   -8.4180    0.0000 O   0  0  0  0  0  0  0  0  0  0  0  0
   10.0709   -9.2430    0.0000 N   0  0  0  0  0  0  0  0  0  0  0  0
    7.2130  -10.8930    0.0000 C   0  0  0  0  0  0  0  0  0  0  0  0
    6.4986  -10.4805    0.0000 O   0  0  0  0  0  0  0  0  0  0  0  0
    5.0696  -10.4805    0.0000 O   0  0  0  0  0  0  0  0  0  0  0  0
    5.7841  -10.8930    0.0000 C   0  0  2  0  0  0  0  0  0  0  0  0
    5.7841  -11.7180    0.0000 C   0  0  1  0  0  0  0  0  0  0  0  0
    5.0696  -12.1305    0.0000 C   0  0  2  0  0  0  0  0  0  0  0  0
    4.3552  -11.7180    0.0000 C   0  0  2  0  0  0  0  0  0  0  0  0
    4.3552  -10.8930    0.0000 C   0  0  1  0  0  0  0  0  0  0  0  0
    6.4986  -12.1305    0.0000 O   0  0  0  0  0  0  0  0  0  0  0  0
    5.7841  -13.3680    0.0000 O   0  0  0  0  0  0  0  0  0  0  0  0
    6.4986  -12.9555    0.0000 C   0  0  2  0  0  0  0  0  0  0  0  0
    7.2130  -13.3680    0.0000 C   0  0  1  0  0  0  0  0  0  0  0  0
    7.2130  -14.1930    0.0000 C   0  0  2  0  0  0  0  0  0  0  0  0
    6.4986  -14.6055    0.0000 C   0  0  1  0  0  0  0  0  0  0  0  0
    5.7841  -14.1930    0.0000 C   0  0  0  0  0  0  0  0  0  0  0  0
    6.4986  -15.4305    0.0000 O   0  0  0  0  0  0  0  0  0  0  0  0
    7.9275  -14.6055    0.0000 O   0  0  0  0  0  0  0  0  0  0  0  0
    7.9275  -12.9555    0.0000 O   0  0  0  0  0  0  0  0  0  0  0  0
    3.6407  -10.4805    0.0000 C   0  0  0  0  0  0  0  0  0  0  0  0
    3.6407  -12.1305    0.0000 O   0  0  0  0  0  0  0  0  0  0  0  0
    5.0696  -12.9555    0.0000 O   0  0  0  0  0  0  0  0  0  0  0  0
   12.2143  -11.3055    0.0000 H   0  0  0  0  0  0  0  0  0  0  0  0
   15.0722   -8.8305    0.0000 H   0  0  0  0  0  0  0  0  0  0  0  0
   18.6446   -8.4180    0.0000 O   0  0  0  0  0  0  0  0  0  0  0  0
   17.9301   -8.8305    0.0000 C   0  0  2  0  0  0  0  0  0  0  0  0
   17.9301   -9.6555    0.0000 C   0  0  1  0  0  0  0  0  0  0  0  0
   18.6446  -10.0680    0.0000 C   0  0  2  0  0  0  0  0  0  0  0  0
   19.3590   -9.6555    0.0000 C   0  0  1  0  0  0  0  0  0  0  0  0
   19.3590   -8.8305    0.0000 C   0  0  1  0  0  0  0  0  0  0  0  0
   20.0735   -8.4180    0.0000 C   0  0  0  0  0  0  0  0  0  0  0  0
   20.7880   -8.8305    0.0000 O   0  0  0  0  0  0  0  0  0  0  0  0
   20.0735  -10.0680    0.0000 O   0  0  0  0  0  0  0  0  0  0  0  0
   18.6446  -10.8930    0.0000 O   0  0  0  0  0  0  0  0  0  0  0  0
   16.0113  -10.8353    0.0000 O   0  0  0  0  0  0  0  0  0  0  0  0
   16.8358  -10.8058    0.0000 C   0  0  2  0  0  0  0  0  0  0  0  0
   17.2735  -11.5051    0.0000 C   0  0  1  0  0  0  0  0  0  0  0  0
   16.8867  -12.2339    0.0000 C   0  0  1  0  0  0  0  0  0  0  0  0
   16.0623  -12.2633    0.0000 C   0  0  2  0  0  0  0  0  0  0  0  0
   15.6246  -11.5640    0.0000 C   0  0  2  0  0  0  0  0  0  0  0  0
   17.3443  -12.9984    0.0000 O   0  0  0  0  0  0  0  0  0  0  0  0
   16.6775  -14.2622    0.0000 O   0  0  0  0  0  0  0  0  0  0  0  0
   17.3758  -13.8228    0.0000 C   0  0  2  0  0  0  0  0  0  0  0  0
   18.1054  -14.2078    0.0000 C   0  0  1  0  0  0  0  0  0  0  0  0
   18.1369  -15.0322    0.0000 C   0  0  2  0  0  0  0  0  0  0  0  0
   17.4387  -15.4716    0.0000 C   0  0  1  0  0  0  0  0  0  0  0  0
   16.7090  -15.0866    0.0000 C   0  0  1  0  0  0  0  0  0  0  0  0
   16.0108  -15.5261    0.0000 C   0  0  0  0  0  0  0  0  0  0  0  0
   16.0422  -16.3505    0.0000 O   0  0  0  0  0  0  0  0  0  0  0  0
   17.4701  -16.2960    0.0000 O   0  0  0  0  0  0  0  0  0  0  0  0
   18.8666  -15.4171    0.0000 O   0  0  0  0  0  0  0  0  0  0  0  0
   18.8037  -13.7683    0.0000 O   0  0  0  0  0  0  0  0  0  0  0  0
   14.8001  -11.5934    0.0000 C   0  0  0  0  0  0  0  0  0  0  0  0
   18.0980  -11.4757    0.0000 O   0  0  0  0  0  0  0  0  0  0  0  0
   15.6625  -13.0162    0.0000 O   0  0  0  0  0  0  0  0  0  0  0  0
   14.2148  -12.7603    0.0000 O   0  0  0  0  0  0  0  0  0  0  0  0
   14.8734  -13.2571    0.0000 C   0  0  2  0  0  0  0  0  0  0  0  0
   14.6045  -14.0370    0.0000 C   0  0  1  0  0  0  0  0  0  0  0  0
   13.7796  -14.0222    0.0000 C   0  0  2  0  0  0  0  0  0  0  0  0
   13.5387  -13.2332    0.0000 C   0  0  2  0  0  0  0  0  0  0  0  0
   12.7588  -12.9642    0.0000 C   0  0  0  0  0  0  0  0  0  0  0  0
   12.1359  -13.5052    0.0000 O   0  0  0  0  0  0  0  0  0  0  0  0
   13.2828  -14.6809    0.0000 O   0  0  0  0  0  0  0  0  0  0  0  0
   15.0773  -14.7130    0.0000 O   0  0  0  0  0  0  0  0  0  0  0  0
   12.2143   -8.8305    0.0000 C   0  0  0  0  0  0  0  0  0  0  0  0
   13.6433   -8.8305    0.0000 C   0  0  0  0  0  0  0  0  0  0  0  0
   14.3577  -10.0680    0.0000 C   0  0  0  0  0  0  0  0  0  0  0  0
   12.9288  -10.0680    0.0000 H   0  0  0  0  0  0  0  0  0  0  0  0
   17.2225  -10.0771    0.0000 O   0  0  0  0  0  0  0  0  0  0  0  0
   15.7867  -10.0680    0.0000 O   0  0  0  0  0  0  0  0  0  0  0  0
   10.0709   -8.4180    0.0000 C   0  0  0  0  0  0  0  0  0  0  0  0
    9.3565   -8.0055    0.0000 C   0  0  0  0  0  0  0  0  0  0  0  0
   10.7854   -8.0055    0.0000 O   0  0  0  0  0  0  0  0  0  0  0  0
  1  2  1  0  0  0  0
  2  3  1  0  0  0  0
  3  4  1  0  0  0  0
  4  5  1  0  0  0  0
  5  6  1  0  0  0  0
  6  7  1  0  0  0  0
  7  8  1  0  0  0  0
  8  9  1  0  0  0  0
  9 10  1  0  0  0  0
 10 11  1  0  0  0  0
 11 12  1  0  0  0  0
 12 13  1  0  0  0  0
 13 14  1  0  0  0  0
 14 15  1  0  0  0  0
 15 16  1  0  0  0  0
 16 17  1  0  0  0  0
 12 17  1  0  0  0  0
 17 18  1  0  0  0  0
  9 18  1  0  0  0  0
 18 19  1  0  0  0  0
 19 20  1  0  0  0  0
 20 21  2  0  0  0  0
  8 21  1  0  0  0  0
 21 22  1  0  0  0  0
  5 22  1  0  0  0  0
  1 22  1  0  0  0  0
 23 24  2  0  0  0  0
 23 25  1  0  0  0  0
  5 23  1  1  0  0  0
 13 26  1  0  0  0  0
 13 27  1  0  0  0  0
  2 28  1  0  0  0  0
  2 29  1  0  0  0  0
 31 32  1  0  0  0  0
 32 33  2  0  0  0  0
 33 34  1  0  0  0  0
 34 35  1  0  0  0  0
 35 36  1  0  0  0  0
 36 37  1  0  0  0  0
 37 38  2  0  0  0  0
 31 39  2  0  0  0  0
 41 42  1  0  0  0  0
 42 43  1  0  0  0  0
 43 44  1  0  0  0  0
 44 45  1  0  0  0  0
 45 46  1  0  0  0  0
 41 46  1  0  0  0  0
 46 47  1  1  0  0  0
 45 48  1  6  0  0  0
 44 49  1  1  0  0  0
 43 50  1  6  0  0  0
 42 40  1  1  0  0  0
 36 40  1  0  0  0  0
 36 51  1  6  0  0  0
 32 52  1  0  0  0  0
 30 31  1  0  0  0  0
  3 30  1  1  0  0  0
 54 55  1  0  0  0  0
 55 56  1  0  0  0  0
 56 57  1  0  0  0  0
 57 58  1  0  0  0  0
 58 59  1  0  0  0  0
 54 59  1  0  0  0  0
 58 60  1  1  0  0  0
 57 61  1  6  0  0  0
 56 62  1  1  0  0  0
 65 66  1  0  0  0  0
 66 67  1  0  0  0  0
 67 68  1  0  0  0  0
 68 69  1  0  0  0  0
 69 70  1  0  0  0  0
 65 70  1  0  0  0  0
 72 73  1  0  0  0  0
 73 74  1  0  0  0  0
 74 75  1  0  0  0  0
 75 76  1  0  0  0  0
 76 77  1  0  0  0  0
 72 77  1  0  0  0  0
 76 78  1  6  0  0  0
 75 79  1  1  0  0  0
 74 80  1  6  0  0  0
 73 71  1  1  0  0  0
 67 71  1  6  0  0  0
 70 81  1  1  0  0  0
 69 82  1  1  0  0  0
 68 83  1  1  0  0  0
 66 64  1  1  0  0  0
 63 64  1  0  0  0  0
 59 63  1  6  0  0  0
 55 53  1  6  0  0  0
 14 53  1  1  0  0  0
 12 84  1  6  0  0  0
 22 85  1  1  0  0  0
 86 87  1  0  0  0  0
 87 88  1  0  0  0  0
 88 89  1  0  0  0  0
 89 90  1  0  0  0  0
 90 91  1  0  0  0  0
 86 91  1  0  0  0  0
 92 93  1  0  0  0  0
 91 92  1  6  0  0  0
 90 94  1  1  0  0  0
 89 95  1  6  0  0  0
 96 97  1  0  0  0  0
 97 98  1  0  0  0  0
 98 99  1  0  0  0  0
 99100  1  0  0  0  0
100101  1  0  0  0  0
 96101  1  0  0  0  0
103104  1  0  0  0  0
104105  1  0  0  0  0
105106  1  0  0  0  0
106107  1  0  0  0  0
107108  1  0  0  0  0
103108  1  0  0  0  0
109110  1  0  0  0  0
108109  1  1  0  0  0
107111  1  6  0  0  0
106112  1  1  0  0  0
105113  1  6  0  0  0
104102  1  1  0  0  0
 99102  1  6  0  0  0
101114  1  6  0  0  0
 98115  1  6  0  0  0
117118  1  0  0  0  0
118119  1  0  0  0  0
119120  1  0  0  0  0
120121  1  0  0  0  0
117121  1  0  0  0  0
122123  1  0  0  0  0
121122  1  6  0  0  0
120124  1  1  0  0  0
119125  1  6  0  0  0
118116  1  1  0  0  0
100116  1  1  0  0  0
 87 25  1  6  0  0  0
 17126  1  1  0  0  0
  9127  1  1  0  0  0
  8128  1  6  0  0  0
 18129  1  6  0  0  0
 97130  1  1  0  0  0
 88130  1  1  0  0  0
  6131  1  6  0  0  0
 62132  1  0  0  0  0
132133  1  0  0  0  0
132134  2  0  0  0  0
M  END
>  <cdx:fragmentId>
166833

$$$$
