99533.cdx
  Mrv1902 05222410252D          

 27 29  0  0  0  0            999 V2000
    5.7387  -10.2713    0.0000 C   0  0  0  0  0  0  0  0  0  0  0  0
    5.7387  -11.0962    0.0000 C   0  0  2  0  0  0  0  0  0  0  0  0
    6.4531  -11.5087    0.0000 O   0  0  0  0  0  0  0  0  0  0  0  0
    7.1676  -11.0962    0.0000 C   0  0  2  0  0  0  0  0  0  0  0  0
    7.1676  -10.2713    0.0000 C   0  0  1  0  0  0  0  0  0  0  0  0
    6.4531   -9.8588    0.0000 C   0  0  1  0  0  0  0  0  0  0  0  0
    6.4531   -9.0337    0.0000 O   0  0  0  0  0  0  0  0  0  0  0  0
    7.8821   -9.8588    0.0000 O   0  0  0  0  0  0  0  0  0  0  0  0
    5.7387  -11.9213    0.0000 O   0  0  0  0  0  0  0  0  0  0  0  0
    7.1676  -11.9213    0.0000 C   0  0  1  0  0  0  0  0  0  0  0  0
    7.7510  -12.5046    0.0000 C   0  0  0  0  0  0  0  0  0  0  0  0
    8.5479  -12.2911    0.0000 O   0  0  0  0  0  0  0  0  0  0  0  0
    5.0242  -11.5087    0.0000 C   0  0  0  0  0  0  0  0  0  0  0  0
    5.0242  -12.3338    0.0000 O   0  0  0  0  0  0  0  0  0  0  0  0
    4.3097  -11.0962    0.0000 O   0  0  0  0  0  0  0  0  0  0  0  0
    5.7441   -8.6056    0.0000 C   0  0  0  0  0  0  0  0  0  0  0  0
    5.7476   -7.7806    0.0000 C   0  0  0  0  0  0  0  0  0  0  0  0
    5.0279   -9.0152    0.0000 O   0  0  0  0  0  0  0  0  0  0  0  0
    5.0348   -7.3652    0.0000 C   0  0  0  0  0  0  0  0  0  0  0  0
    5.0382   -6.5402    0.0000 C   0  0  0  0  0  0  0  0  0  0  0  0
    5.7544   -6.1307    0.0000 C   0  0  0  0  0  0  0  0  0  0  0  0
    5.7579   -5.3057    0.0000 C   0  0  0  0  0  0  0  0  0  0  0  0
    5.0451   -4.8902    0.0000 C   0  0  0  0  0  0  0  0  0  0  0  0
    4.3289   -5.2997    0.0000 C   0  0  0  0  0  0  0  0  0  0  0  0
    4.3255   -6.1247    0.0000 C   0  0  0  0  0  0  0  0  0  0  0  0
    5.0486   -4.0652    0.0000 O   0  0  0  0  0  0  0  0  0  0  0  0
    6.4741   -4.8962    0.0000 O   0  0  0  0  0  0  0  0  0  0  0  0
  1  2  1  0  0  0  0
  2  3  1  1  0  0  0
  4  3  1  1  0  0  0
  4  5  1  0  0  0  0
  5  6  1  0  0  0  0
  6  1  1  0  0  0  0
  6  7  1  6  0  0  0
  5  8  1  1  0  0  0
  2  9  1  0  0  0  0
  4 10  1  0  0  0  0
  9 10  1  0  0  0  0
 10 11  1  6  0  0  0
 11 12  1  0  0  0  0
  2 13  1  0  0  0  0
 13 14  2  0  0  0  0
 13 15  1  0  0  0  0
 16 17  1  0  0  0  0
 16 18  2  0  0  0  0
 17 19  2  0  0  0  0
 19 20  1  0  0  0  0
 20 21  2  0  0  0  0
 21 22  1  0  0  0  0
 22 23  2  0  0  0  0
 23 24  1  0  0  0  0
 24 25  2  0  0  0  0
 25 20  1  0  0  0  0
 23 26  1  0  0  0  0
 22 27  1  0  0  0  0
 16  7  1  0  0  0  0
M  END
>  <cdx:fragmentId>
5

$$$$
