99532.cdx
  Mrv1902 05222410252D          

 39 42  0  0  0  0            999 V2000
    3.7312   -9.9688    0.0000 C   0  0  0  0  0  0  0  0  0  0  0  0
    3.7312  -10.7937    0.0000 C   0  0  2  0  0  0  0  0  0  0  0  0
    4.4456  -11.2062    0.0000 O   0  0  0  0  0  0  0  0  0  0  0  0
    5.1601  -10.7937    0.0000 C   0  0  2  0  0  0  0  0  0  0  0  0
    5.1601   -9.9688    0.0000 C   0  0  1  0  0  0  0  0  0  0  0  0
    4.4456   -9.5563    0.0000 C   0  0  1  0  0  0  0  0  0  0  0  0
    4.4456   -8.7313    0.0000 O   0  0  0  0  0  0  0  0  0  0  0  0
    5.8746   -9.5563    0.0000 O   0  0  0  0  0  0  0  0  0  0  0  0
    3.7312  -11.6187    0.0000 O   0  0  0  0  0  0  0  0  0  0  0  0
    5.1601  -11.6187    0.0000 C   0  0  1  0  0  0  0  0  0  0  0  0
    5.7435  -12.2021    0.0000 C   0  0  0  0  0  0  0  0  0  0  0  0
    6.5404  -11.9886    0.0000 O   0  0  0  0  0  0  0  0  0  0  0  0
    3.0167  -11.2062    0.0000 C   0  0  0  0  0  0  0  0  0  0  0  0
    3.0167  -12.0313    0.0000 O   0  0  0  0  0  0  0  0  0  0  0  0
    2.3022  -10.7937    0.0000 O   0  0  0  0  0  0  0  0  0  0  0  0
    3.7366   -8.3031    0.0000 C   0  0  0  0  0  0  0  0  0  0  0  0
    3.7401   -7.4781    0.0000 C   0  0  0  0  0  0  0  0  0  0  0  0
    3.0204   -8.7127    0.0000 O   0  0  0  0  0  0  0  0  0  0  0  0
    3.0273   -7.0627    0.0000 C   0  0  0  0  0  0  0  0  0  0  0  0
    3.0307   -6.2377    0.0000 C   0  0  0  0  0  0  0  0  0  0  0  0
    3.7469   -5.8282    0.0000 C   0  0  0  0  0  0  0  0  0  0  0  0
    3.7504   -5.0032    0.0000 C   0  0  0  0  0  0  0  0  0  0  0  0
    3.0376   -4.5877    0.0000 C   0  0  0  0  0  0  0  0  0  0  0  0
    2.3214   -4.9972    0.0000 C   0  0  0  0  0  0  0  0  0  0  0  0
    2.3180   -5.8222    0.0000 C   0  0  0  0  0  0  0  0  0  0  0  0
    3.0411   -3.7627    0.0000 O   0  0  0  0  0  0  0  0  0  0  0  0
    4.4666   -4.5937    0.0000 O   0  0  0  0  0  0  0  0  0  0  0  0
   10.5115  -10.9296    0.0000 O   0  0  0  0  0  0  0  0  0  0  0  0
   11.6812  -12.0933    0.0000 O   0  0  0  0  0  0  0  0  0  0  0  0
    9.8770  -13.3219    0.0000 C   0  0  0  0  0  0  0  0  0  0  0  0
   10.6734  -13.1063    0.0000 C   0  0  0  0  0  0  0  0  0  0  0  0
   10.8848  -12.3089    0.0000 C   0  0  0  0  0  0  0  0  0  0  0  0
   10.3000  -11.7270    0.0000 C   0  0  0  0  0  0  0  0  0  0  0  0
    9.5037  -11.9426    0.0000 C   0  0  0  0  0  0  0  0  0  0  0  0
    9.2922  -12.7400    0.0000 C   0  0  0  0  0  0  0  0  0  0  0  0
    8.4958  -12.9556    0.0000 C   0  0  0  0  0  0  0  0  0  0  0  0
    6.9031  -13.3867    0.0000 O   0  0  0  0  0  0  0  0  0  0  0  0
    7.9110  -12.3737    0.0000 C   0  0  0  0  0  0  0  0  0  0  0  0
    7.1146  -12.5893    0.0000 C   0  0  0  0  0  0  0  0  0  0  0  0
  1  2  1  0  0  0  0
  2  3  1  1  0  0  0
  4  3  1  1  0  0  0
  4  5  1  0  0  0  0
  5  6  1  0  0  0  0
  6  1  1  0  0  0  0
  6  7  1  6  0  0  0
  5  8  1  1  0  0  0
  2  9  1  0  0  0  0
  4 10  1  0  0  0  0
  9 10  1  0  0  0  0
 10 11  1  6  0  0  0
 11 12  1  0  0  0  0
  2 13  1  0  0  0  0
 13 14  2  0  0  0  0
 13 15  1  0  0  0  0
 16 17  1  0  0  0  0
 16 18  2  0  0  0  0
 17 19  2  0  0  0  0
 19 20  1  0  0  0  0
 20 21  2  0  0  0  0
 21 22  1  0  0  0  0
 22 23  2  0  0  0  0
 23 24  1  0  0  0  0
 24 25  2  0  0  0  0
 25 20  1  0  0  0  0
 23 26  1  0  0  0  0
 22 27  1  0  0  0  0
 33 28  1  0  0  0  0
 32 29  1  0  0  0  0
 30 35  1  0  0  0  0
 31 30  2  0  0  0  0
 32 31  1  0  0  0  0
 33 32  2  0  0  0  0
 34 33  1  0  0  0  0
 35 34  2  0  0  0  0
 36 35  1  0  0  0  0
 38 36  2  0  0  0  0
 39 37  2  0  0  0  0
 39 38  1  0  0  0  0
 16  7  1  0  0  0  0
 39 12  1  0  0  0  0
M  END
>  <cdx:fragmentId>
5

$$$$
