99534.cdx
  Mrv1902 05222410242D          

 40 43  0  0  0  0            999 V2000
    3.7312   -9.9688    0.0000 C   0  0  0  0  0  0  0  0  0  0  0  0
    3.7312  -10.7937    0.0000 C   0  0  2  0  0  0  0  0  0  0  0  0
    4.4456  -11.2062    0.0000 O   0  0  0  0  0  0  0  0  0  0  0  0
    5.1601  -10.7937    0.0000 C   0  0  2  0  0  0  0  0  0  0  0  0
    5.1601   -9.9688    0.0000 C   0  0  1  0  0  0  0  0  0  0  0  0
    4.4456   -9.5563    0.0000 C   0  0  1  0  0  0  0  0  0  0  0  0
    4.4456   -8.7313    0.0000 O   0  0  0  0  0  0  0  0  0  0  0  0
    5.8746   -9.5563    0.0000 O   0  0  0  0  0  0  0  0  0  0  0  0
    3.7312  -11.6187    0.0000 O   0  0  0  0  0  0  0  0  0  0  0  0
    5.1601  -11.6187    0.0000 C   0  0  1  0  0  0  0  0  0  0  0  0
    5.7435  -12.2021    0.0000 C   0  0  0  0  0  0  0  0  0  0  0  0
    6.5404  -11.9886    0.0000 O   0  0  0  0  0  0  0  0  0  0  0  0
    3.0167  -11.2062    0.0000 C   0  0  0  0  0  0  0  0  0  0  0  0
    3.0167  -12.0313    0.0000 O   0  0  0  0  0  0  0  0  0  0  0  0
    2.3022  -10.7937    0.0000 O   0  0  0  0  0  0  0  0  0  0  0  0
    5.8874   -8.7397    0.0000 C   0  0  0  0  0  0  0  0  0  0  0  0
    6.6019   -8.3272    0.0000 C   0  0  0  0  0  0  0  0  0  0  0  0
    5.1729   -8.3272    0.0000 O   0  0  0  0  0  0  0  0  0  0  0  0
    6.6019   -7.5022    0.0000 C   0  0  0  0  0  0  0  0  0  0  0  0
    7.3164   -7.0897    0.0000 C   0  0  0  0  0  0  0  0  0  0  0  0
    8.0308   -7.5022    0.0000 C   0  0  0  0  0  0  0  0  0  0  0  0
    8.7453   -7.0897    0.0000 C   0  0  0  0  0  0  0  0  0  0  0  0
    8.7453   -6.2647    0.0000 C   0  0  0  0  0  0  0  0  0  0  0  0
    8.0308   -5.8522    0.0000 C   0  0  0  0  0  0  0  0  0  0  0  0
    7.3164   -6.2647    0.0000 C   0  0  0  0  0  0  0  0  0  0  0  0
    9.4598   -5.8522    0.0000 O   0  0  0  0  0  0  0  0  0  0  0  0
    9.4598   -7.5022    0.0000 O   0  0  0  0  0  0  0  0  0  0  0  0
   10.5534  -11.1017    0.0000 O   0  0  0  0  0  0  0  0  0  0  0  0
   11.6719  -12.3148    0.0000 O   0  0  0  0  0  0  0  0  0  0  0  0
    9.8164  -13.4645    0.0000 C   0  0  0  0  0  0  0  0  0  0  0  0
   10.6213  -13.2834    0.0000 C   0  0  0  0  0  0  0  0  0  0  0  0
   10.8670  -12.4959    0.0000 C   0  0  0  0  0  0  0  0  0  0  0  0
   10.3078  -11.8893    0.0000 C   0  0  0  0  0  0  0  0  0  0  0  0
    9.5029  -12.0704    0.0000 C   0  0  0  0  0  0  0  0  0  0  0  0
    9.2572  -12.8579    0.0000 C   0  0  0  0  0  0  0  0  0  0  0  0
    8.4523  -13.0390    0.0000 C   0  0  0  0  0  0  0  0  0  0  0  0
    6.8425  -13.4010    0.0000 O   0  0  0  0  0  0  0  0  0  0  0  0
    7.8931  -12.4324    0.0000 C   0  0  0  0  0  0  0  0  0  0  0  0
    7.0882  -12.6135    0.0000 C   0  0  0  0  0  0  0  0  0  0  0  0
    3.0167   -9.5563    0.0000 O   0  0  0  0  0  0  0  0  0  0  0  0
  1  2  1  0  0  0  0
  2  3  1  1  0  0  0
  4  3  1  1  0  0  0
  4  5  1  0  0  0  0
  5  6  1  0  0  0  0
  6  1  1  0  0  0  0
  6  7  1  6  0  0  0
  5  8  1  1  0  0  0
  2  9  1  0  0  0  0
  4 10  1  0  0  0  0
  9 10  1  0  0  0  0
 10 11  1  6  0  0  0
 11 12  1  0  0  0  0
  2 13  1  0  0  0  0
 13 14  2  0  0  0  0
 13 15  1  0  0  0  0
 16 17  1  0  0  0  0
 16 18  2  0  0  0  0
 17 19  2  0  0  0  0
 19 20  1  0  0  0  0
 20 21  2  0  0  0  0
 21 22  1  0  0  0  0
 22 23  2  0  0  0  0
 23 24  1  0  0  0  0
 24 25  2  0  0  0  0
 25 20  1  0  0  0  0
 23 26  1  0  0  0  0
 22 27  1  0  0  0  0
 33 28  1  0  0  0  0
 32 29  1  0  0  0  0
 30 35  1  0  0  0  0
 31 30  2  0  0  0  0
 32 31  1  0  0  0  0
 33 32  2  0  0  0  0
 34 33  1  0  0  0  0
 35 34  2  0  0  0  0
 36 35  1  0  0  0  0
 38 36  2  0  0  0  0
 39 37  2  0  0  0  0
 39 38  1  0  0  0  0
 16  8  1  0  0  0  0
 39 12  1  0  0  0  0
  1 40  1  0  0  0  0
M  END
>  <cdx:fragmentId>
5

$$$$
