99546.cdx
  Mrv1902 05222410272D          

 65 72  0  0  0  0            999 V2000
   11.5230  -10.2025    0.0000 C   0  0  0  0  0  0  0  0  0  0  0  0
   11.5230  -11.0275    0.0000 C   0  0  1  0  0  0  0  0  0  0  0  0
   12.2375  -11.4400    0.0000 C   0  0  0  0  0  0  0  0  0  0  0  0
   12.9519  -11.0275    0.0000 C   0  0  0  0  0  0  0  0  0  0  0  0
   12.9519  -10.2025    0.0000 C   0  0  2  0  0  0  0  0  0  0  0  0
   12.2375   -9.7900    0.0000 C   0  0  0  0  0  0  0  0  0  0  0  0
   13.6664  -11.4400    0.0000 C   0  0  0  0  0  0  0  0  0  0  0  0
   14.3808  -11.0275    0.0000 C   0  0  0  0  0  0  0  0  0  0  0  0
   14.3808  -10.2025    0.0000 C   0  0  0  0  0  0  0  0  0  0  0  0
   13.6664   -9.7900    0.0000 C   0  0  0  0  0  0  0  0  0  0  0  0
   15.0953   -9.7900    0.0000 C   0  0  0  0  0  0  0  0  0  0  0  0
   15.0953   -8.9650    0.0000 C   0  0  2  0  0  0  0  0  0  0  0  0
   14.3808   -8.5525    0.0000 C   0  0  0  0  0  0  0  0  0  0  0  0
   13.6664   -8.9650    0.0000 C   0  0  0  0  0  0  0  0  0  0  0  0
   12.9519   -9.3775    0.0000 C   0  0  0  0  0  0  0  0  0  0  0  0
   10.8086  -11.4400    0.0000 O   0  0  0  0  0  0  0  0  0  0  0  0
   15.8799  -10.0449    0.0000 C   0  0  0  0  0  0  0  0  0  0  0  0
   16.3650   -9.3775    0.0000 C   0  0  0  0  0  0  0  0  0  0  0  0
   15.8799   -8.7101    0.0000 C   0  0  0  0  0  0  0  0  0  0  0  0
   17.1495   -9.1226    0.0000 O   0  0  0  0  0  0  0  0  0  0  0  0
   17.1495   -8.2976    0.0000 C   0  0  0  0  0  0  0  0  0  0  0  0
   16.3650   -8.0426    0.0000 C   0  0  0  0  0  0  0  0  0  0  0  0
   16.1100   -7.2581    0.0000 C   0  0  0  0  0  0  0  0  0  0  0  0
   17.8170   -7.8127    0.0000 C   0  0  1  0  0  0  0  0  0  0  0  0
   18.5707   -8.1482    0.0000 C   0  0  0  0  0  0  0  0  0  0  0  0
   19.2382   -7.6631    0.0000 C   0  0  1  0  0  0  0  0  0  0  0  0
   19.9917   -7.9989    0.0000 C   0  0  0  0  0  0  0  0  0  0  0  0
   20.6591   -7.5138    0.0000 O   0  0  0  0  0  0  0  0  0  0  0  0
   19.1518   -6.8428    0.0000 C   0  0  0  0  0  0  0  0  0  0  0  0
   17.7306   -6.9921    0.0000 O   0  0  0  0  0  0  0  0  0  0  0  0
   15.0953   -8.1400    0.0000 C   0  0  0  0  0  0  0  0  0  0  0  0
   10.0941  -11.0275    0.0000 C   0  0  2  0  0  0  0  0  0  0  0  0
   10.0941  -10.2025    0.0000 O   0  0  0  0  0  0  0  0  0  0  0  0
    9.3797   -9.7900    0.0000 C   0  0  1  0  0  0  0  0  0  0  0  0
    8.6652  -10.2025    0.0000 C   0  0  2  0  0  0  0  0  0  0  0  0
    8.6652  -11.0275    0.0000 C   0  0  1  0  0  0  0  0  0  0  0  0
    9.3797  -11.4400    0.0000 C   0  0  1  0  0  0  0  0  0  0  0  0
    9.3797   -8.9650    0.0000 C   0  0  0  0  0  0  0  0  0  0  0  0
    7.9508  -11.4400    0.0000 O   0  0  0  0  0  0  0  0  0  0  0  0
    7.9508   -9.7900    0.0000 O   0  0  0  0  0  0  0  0  0  0  0  0
    9.3797  -12.2650    0.0000 O   0  0  0  0  0  0  0  0  0  0  0  0
    8.6652   -8.5525    0.0000 O   0  0  0  0  0  0  0  0  0  0  0  0
   18.3983   -6.5073    0.0000 C   0  0  0  0  0  0  0  0  0  0  0  0
   18.3120   -5.6867    0.0000 C   0  0  0  0  0  0  0  0  0  0  0  0
   21.4129   -7.8496    0.0000 C   0  0  2  0  0  0  0  0  0  0  0  0
   21.4992   -8.6699    0.0000 O   0  0  0  0  0  0  0  0  0  0  0  0
   22.2527   -9.0054    0.0000 C   0  0  1  0  0  0  0  0  0  0  0  0
   22.9201   -8.5206    0.0000 C   0  0  2  0  0  0  0  0  0  0  0  0
   22.8341   -7.7000    0.0000 C   0  0  1  0  0  0  0  0  0  0  0  0
   22.0803   -7.3645    0.0000 C   0  0  1  0  0  0  0  0  0  0  0  0
   22.3391   -9.8260    0.0000 C   0  0  0  0  0  0  0  0  0  0  0  0
   23.5015   -7.2152    0.0000 O   0  0  0  0  0  0  0  0  0  0  0  0
   23.6739   -8.8561    0.0000 O   0  0  0  0  0  0  0  0  0  0  0  0
   21.9942   -6.5442    0.0000 O   0  0  0  0  0  0  0  0  0  0  0  0
   23.0928  -10.1615    0.0000 O   0  0  0  0  0  0  0  0  0  0  0  0
    8.6652  -12.6775    0.0000 C   0  0  2  0  0  0  0  0  0  0  0  0
    7.9508  -12.2650    0.0000 O   0  0  0  0  0  0  0  0  0  0  0  0
    7.2363  -12.6775    0.0000 C   0  0  2  0  0  0  0  0  0  0  0  0
    7.2363  -13.5025    0.0000 C   0  0  1  0  0  0  0  0  0  0  0  0
    7.9508  -13.9150    0.0000 C   0  0  2  0  0  0  0  0  0  0  0  0
    8.6652  -13.5025    0.0000 C   0  0  1  0  0  0  0  0  0  0  0  0
    9.3797  -13.9150    0.0000 O   0  0  0  0  0  0  0  0  0  0  0  0
    7.9508  -14.7400    0.0000 O   0  0  0  0  0  0  0  0  0  0  0  0
    6.5218  -13.9150    0.0000 O   0  0  0  0  0  0  0  0  0  0  0  0
    6.5218  -12.2650    0.0000 C   0  0  0  0  0  0  0  0  0  0  0  0
  1  2  1  0  0  0  0
  2  3  1  0  0  0  0
  3  4  1  0  0  0  0
  4  5  1  0  0  0  0
  5  6  1  0  0  0  0
  6  1  1  0  0  0  0
  4  7  2  0  0  0  0
  7  8  1  0  0  0  0
  8  9  1  0  0  0  0
  9 10  1  0  0  0  0
 10  5  1  0  0  0  0
  9 11  1  0  0  0  0
 11 12  1  0  0  0  0
 12 13  1  0  0  0  0
 13 14  1  0  0  0  0
 14 10  1  0  0  0  0
  5 15  1  1  0  0  0
  2 16  1  1  0  0  0
 11 17  1  0  0  0  0
 17 18  1  0  0  0  0
 18 19  1  0  0  0  0
 19 12  1  0  0  0  0
 18 20  1  0  0  0  0
 20 21  1  0  0  0  0
 21 22  2  0  0  0  0
 22 19  1  0  0  0  0
 22 23  1  0  0  0  0
 21 24  1  0  0  0  0
 24 25  1  0  0  0  0
 25 26  1  0  0  0  0
 26 27  1  0  0  0  0
 27 28  1  0  0  0  0
 26 29  1  6  0  0  0
 24 30  1  6  0  0  0
 12 31  1  1  0  0  0
 32 16  1  1  0  0  0
 32 33  1  0  0  0  0
 33 34  1  0  0  0  0
 34 35  1  0  0  0  0
 35 36  1  0  0  0  0
 36 37  1  0  0  0  0
 37 32  1  0  0  0  0
 34 38  1  1  0  0  0
 36 39  1  1  0  0  0
 35 40  1  6  0  0  0
 37 41  1  6  0  0  0
 38 42  1  0  0  0  0
 30 43  1  0  0  0  0
 43 44  1  0  0  0  0
 45 28  1  1  0  0  0
 45 46  1  0  0  0  0
 46 47  1  0  0  0  0
 47 48  1  0  0  0  0
 48 49  1  0  0  0  0
 49 50  1  0  0  0  0
 50 45  1  0  0  0  0
 47 51  1  1  0  0  0
 49 52  1  1  0  0  0
 48 53  1  6  0  0  0
 50 54  1  6  0  0  0
 51 55  1  0  0  0  0
 56 41  1  1  0  0  0
 56 57  1  0  0  0  0
 57 58  1  0  0  0  0
 58 59  1  0  0  0  0
 59 60  1  0  0  0  0
 60 61  1  0  0  0  0
 61 56  1  0  0  0  0
 61 62  1  6  0  0  0
 60 63  1  6  0  0  0
 59 64  1  1  0  0  0
 58 65  1  6  0  0  0
M  END
>  <cdx:fragmentId>
577

$$$$
