99540.cdx
  Mrv1902 05222410262D          

 14 14  0  0  0  0            999 V2000
    6.2744   -8.0168    0.0000 C   0  0  0  0  0  0  0  0  0  0  0  0
    5.8619   -8.7313    0.0000 C   0  0  0  0  0  0  0  0  0  0  0  0
    6.2744   -9.4457    0.0000 C   0  0  0  0  0  0  0  0  0  0  0  0
    7.0994   -9.4457    0.0000 C   0  0  0  0  0  0  0  0  0  0  0  0
    7.5119   -8.7313    0.0000 C   0  0  0  0  0  0  0  0  0  0  0  0
    7.0994   -8.0168    0.0000 C   0  0  0  0  0  0  0  0  0  0  0  0
    5.8619  -10.1602    0.0000 O   0  0  0  0  0  0  0  0  0  0  0  0
    5.0369  -10.1602    0.0000 C   0  0  0  0  0  0  0  0  0  0  0  0
    7.5119   -7.3023    0.0000 C   0  0  1  0  0  0  0  0  0  0  0  0
    7.0994   -6.5878    0.0000 O   0  0  0  0  0  0  0  0  0  0  0  0
    8.3369   -7.3023    0.0000 C   0  0  1  0  0  0  0  0  0  0  0  0
    8.7494   -6.5878    0.0000 O   0  0  0  0  0  0  0  0  0  0  0  0
    8.7494   -8.0168    0.0000 C   0  0  0  0  0  0  0  0  0  0  0  0
    6.2744   -6.5878    0.0000 C   0  0  0  0  0  0  0  0  0  0  0  0
  1  2  2  0  0  0  0
  2  3  1  0  0  0  0
  3  4  2  0  0  0  0
  4  5  1  0  0  0  0
  5  6  2  0  0  0  0
  6  1  1  0  0  0  0
  3  7  1  0  0  0  0
  7  8  1  0  0  0  0
  9  6  1  1  0  0  0
  9 10  1  0  0  0  0
  9 11  1  0  0  0  0
 11 12  1  0  0  0  0
 11 13  1  1  0  0  0
 10 14  1  0  0  0  0
M  END
>  <cdx:fragmentId>
5

$$$$
