99552.cdx
  Mrv1902 05222410272D          

 26 27  0  0  0  0            999 V2000
    8.7089   -7.5160    0.0000 C   0  0  0  0  0  0  0  0  0  0  0  0
    9.4234   -7.9285    0.0000 C   0  0  1  0  0  0  0  0  0  0  0  0
   10.1379   -7.5160    0.0000 C   0  0  0  0  0  0  0  0  0  0  0  0
    9.4234   -8.7535    0.0000 O   0  0  0  0  0  0  0  0  0  0  0  0
    7.2784   -9.1797    0.0000 C   0  0  2  0  0  0  0  0  0  0  0  0
    7.2784  -10.0047    0.0000 C   0  0  2  0  0  0  0  0  0  0  0  0
    7.9929  -10.4172    0.0000 C   0  0  1  0  0  0  0  0  0  0  0  0
    8.7074  -10.0047    0.0000 C   0  0  2  0  0  0  0  0  0  0  0  0
    8.7074   -9.1797    0.0000 C   0  0  1  0  0  0  0  0  0  0  0  0
    7.9929   -8.7672    0.0000 O   0  0  0  0  0  0  0  0  0  0  0  0
    6.5639   -8.7672    0.0000 C   0  0  0  0  0  0  0  0  0  0  0  0
    7.9929  -11.2422    0.0000 O   0  0  0  0  0  0  0  0  0  0  0  0
    6.5639  -10.4172    0.0000 O   0  0  0  0  0  0  0  0  0  0  0  0
    9.4218  -10.4172    0.0000 O   0  0  0  0  0  0  0  0  0  0  0  0
    5.8495   -9.1797    0.0000 O   0  0  0  0  0  0  0  0  0  0  0  0
    3.6993   -8.7605    0.0000 C   0  0  0  0  0  0  0  0  0  0  0  0
    2.9829   -9.1696    0.0000 C   0  0  0  0  0  0  0  0  0  0  0  0
    2.9790   -9.9946    0.0000 C   0  0  0  0  0  0  0  0  0  0  0  0
    3.6915  -10.4105    0.0000 C   0  0  0  0  0  0  0  0  0  0  0  0
    4.4080  -10.0014    0.0000 C   0  0  0  0  0  0  0  0  0  0  0  0
    4.4118   -9.1764    0.0000 C   0  0  0  0  0  0  0  0  0  0  0  0
    2.2704   -8.7538    0.0000 O   0  0  0  0  0  0  0  0  0  0  0  0
    2.2626  -10.4038    0.0000 O   0  0  0  0  0  0  0  0  0  0  0  0
    3.6877  -11.2355    0.0000 O   0  0  0  0  0  0  0  0  0  0  0  0
    5.1283   -8.7673    0.0000 C   0  0  0  0  0  0  0  0  0  0  0  0
    5.1321   -7.9423    0.0000 O   0  0  0  0  0  0  0  0  0  0  0  0
  1  2  1  0  0  0  0
  2  3  1  0  0  0  0
  2  4  1  1  0  0  0
  5  6  1  0  0  0  0
  6  7  1  0  0  0  0
  7  8  1  0  0  0  0
  8  9  1  0  0  0  0
  9 10  1  0  0  0  0
 10  5  1  0  0  0  0
  5 11  1  1  0  0  0
  7 12  1  1  0  0  0
  6 13  1  6  0  0  0
  8 14  1  6  0  0  0
 11 15  1  0  0  0  0
  9  4  1  1  0  0  0
 16 17  2  0  0  0  0
 17 18  1  0  0  0  0
 18 19  2  0  0  0  0
 19 20  1  0  0  0  0
 20 21  2  0  0  0  0
 21 16  1  0  0  0  0
 17 22  1  0  0  0  0
 18 23  1  0  0  0  0
 19 24  1  0  0  0  0
 21 25  1  0  0  0  0
 25 26  2  0  0  0  0
 25 15  1  0  0  0  0
M  END
>  <cdx:fragmentId>
336

$$$$
