99556.cdx
  Mrv1902 05222410262D          

 22 24  0  0  0  0            999 V2000
    7.0545   -7.4196    0.0000 N   0  0  0  0  0  0  0  0  0  0  0  0
    7.7219   -7.9045    0.0000 C   0  0  0  0  0  0  0  0  0  0  0  0
    7.4670   -8.6891    0.0000 C   0  0  0  0  0  0  0  0  0  0  0  0
    6.6420   -8.6891    0.0000 C   0  0  0  0  0  0  0  0  0  0  0  0
    6.0899   -9.3022    0.0000 C   0  0  0  0  0  0  0  0  0  0  0  0
    5.2830   -9.1307    0.0000 C   0  0  0  0  0  0  0  0  0  0  0  0
    5.0280   -8.3461    0.0000 C   0  0  0  0  0  0  0  0  0  0  0  0
    5.5801   -7.7330    0.0000 C   0  0  0  0  0  0  0  0  0  0  0  0
    6.3870   -7.9045    0.0000 C   0  0  0  0  0  0  0  0  0  0  0  0
    8.5289   -7.7330    0.0000 C   0  0  0  0  0  0  0  0  0  0  0  0
    8.0190   -9.3022    0.0000 C   0  0  0  0  0  0  0  0  0  0  0  0
    8.8260   -9.1307    0.0000 C   0  0  0  0  0  0  0  0  0  0  0  0
    9.0809   -8.3461    0.0000 N   0  0  0  0  0  0  0  0  0  0  0  0
    7.7641  -10.0868    0.0000 O   0  0  0  0  0  0  0  0  0  0  0  0
    8.3161  -10.6999    0.0000 C   0  0  0  0  0  0  0  0  0  0  0  0
    5.3251   -6.9484    0.0000 O   0  0  0  0  0  0  0  0  0  0  0  0
    4.5282   -6.7348    0.0000 C   0  0  0  0  0  0  0  0  0  0  0  0
    8.7424   -6.9361    0.0000 C   0  0  0  0  0  0  0  0  0  0  0  0
    9.5393   -6.7226    0.0000 C   0  0  0  0  0  0  0  0  0  0  0  0
    9.7528   -5.9257    0.0000 C   0  0  0  0  0  0  0  0  0  0  0  0
    9.1695   -5.3423    0.0000 O   0  0  0  0  0  0  0  0  0  0  0  0
    8.1590   -6.3527    0.0000 O   0  0  0  0  0  0  0  0  0  0  0  0
  1  2  1  0  0  0  0
  2  3  2  0  0  0  0
  3  4  1  0  0  0  0
  4  5  1  0  0  0  0
  5  6  2  0  0  0  0
  6  7  1  0  0  0  0
  7  8  2  0  0  0  0
  8  9  1  0  0  0  0
  1  9  1  0  0  0  0
  4  9  2  0  0  0  0
 11 12  2  0  0  0  0
 12 13  1  0  0  0  0
 10 13  1  0  0  0  0
 10  2  1  0  0  0  0
 11  3  1  0  0  0  0
 11 14  1  0  0  0  0
 14 15  1  0  0  0  0
  8 16  1  0  0  0  0
 16 17  1  0  0  0  0
 10 18  1  0  0  0  0
 18 19  1  0  0  0  0
 19 20  1  0  0  0  0
 20 21  2  0  0  0  0
 18 22  1  0  0  0  0
M  END
>  <cdx:fragmentId>
5

$$$$
