99557.cdx
  Mrv1902 05222410272D          

 32 33  0  0  0  0            999 V2000
    8.7089   -7.5160    0.0000 C   0  0  0  0  0  0  0  0  0  0  0  0
    9.4234   -7.9285    0.0000 C   0  0  1  0  0  0  0  0  0  0  0  0
   10.1379   -7.5160    0.0000 C   0  0  0  0  0  0  0  0  0  0  0  0
   10.8524   -7.9285    0.0000 C   0  0  0  0  0  0  0  0  0  0  0  0
   10.1379   -6.6910    0.0000 C   0  0  0  0  0  0  0  0  0  0  0  0
   10.8524   -6.2785    0.0000 O   0  0  0  0  0  0  0  0  0  0  0  0
   11.5668   -7.5160    0.0000 O   0  0  0  0  0  0  0  0  0  0  0  0
   10.1379   -8.3410    0.0000 O   0  0  0  0  0  0  0  0  0  0  0  0
    7.9945   -7.9285    0.0000 O   0  0  0  0  0  0  0  0  0  0  0  0
    9.4234   -8.7535    0.0000 O   0  0  0  0  0  0  0  0  0  0  0  0
    7.2784   -9.1797    0.0000 C   0  0  2  0  0  0  0  0  0  0  0  0
    7.2784  -10.0047    0.0000 C   0  0  2  0  0  0  0  0  0  0  0  0
    7.9929  -10.4172    0.0000 C   0  0  1  0  0  0  0  0  0  0  0  0
    8.7074  -10.0047    0.0000 C   0  0  2  0  0  0  0  0  0  0  0  0
    8.7074   -9.1797    0.0000 C   0  0  1  0  0  0  0  0  0  0  0  0
    7.9929   -8.7672    0.0000 O   0  0  0  0  0  0  0  0  0  0  0  0
    6.5639   -8.7672    0.0000 C   0  0  0  0  0  0  0  0  0  0  0  0
    7.9929  -11.2422    0.0000 O   0  0  0  0  0  0  0  0  0  0  0  0
    6.5639  -10.4172    0.0000 O   0  0  0  0  0  0  0  0  0  0  0  0
    9.4218  -10.4172    0.0000 O   0  0  0  0  0  0  0  0  0  0  0  0
    5.8495   -9.1797    0.0000 O   0  0  0  0  0  0  0  0  0  0  0  0
    3.6993   -8.7605    0.0000 C   0  0  0  0  0  0  0  0  0  0  0  0
    2.9829   -9.1696    0.0000 C   0  0  0  0  0  0  0  0  0  0  0  0
    2.9790   -9.9946    0.0000 C   0  0  0  0  0  0  0  0  0  0  0  0
    3.6915  -10.4105    0.0000 C   0  0  0  0  0  0  0  0  0  0  0  0
    4.4080  -10.0014    0.0000 C   0  0  0  0  0  0  0  0  0  0  0  0
    4.4118   -9.1764    0.0000 C   0  0  0  0  0  0  0  0  0  0  0  0
    2.2704   -8.7538    0.0000 O   0  0  0  0  0  0  0  0  0  0  0  0
    2.2626  -10.4038    0.0000 O   0  0  0  0  0  0  0  0  0  0  0  0
    3.6877  -11.2355    0.0000 O   0  0  0  0  0  0  0  0  0  0  0  0
    5.1283   -8.7673    0.0000 C   0  0  0  0  0  0  0  0  0  0  0  0
    5.1321   -7.9423    0.0000 O   0  0  0  0  0  0  0  0  0  0  0  0
  1  2  1  0  0  0  0
  2  3  1  0  0  0  0
  3  4  1  0  0  0  0
  5  3  1  0  0  0  0
  5  6  1  0  0  0  0
  4  7  1  0  0  0  0
  3  8  1  0  0  0  0
  1  9  1  0  0  0  0
  2 10  1  1  0  0  0
 11 12  1  0  0  0  0
 12 13  1  0  0  0  0
 13 14  1  0  0  0  0
 14 15  1  0  0  0  0
 15 16  1  0  0  0  0
 16 11  1  0  0  0  0
 11 17  1  1  0  0  0
 13 18  1  1  0  0  0
 12 19  1  6  0  0  0
 14 20  1  6  0  0  0
 17 21  1  0  0  0  0
 15 10  1  1  0  0  0
 22 23  2  0  0  0  0
 23 24  1  0  0  0  0
 24 25  2  0  0  0  0
 25 26  1  0  0  0  0
 26 27  2  0  0  0  0
 27 22  1  0  0  0  0
 23 28  1  0  0  0  0
 24 29  1  0  0  0  0
 25 30  1  0  0  0  0
 27 31  1  0  0  0  0
 31 32  2  0  0  0  0
 31 21  1  0  0  0  0
M  END
>  <cdx:fragmentId>
336

$$$$
