99555.cdx
  Mrv1902 05222410262D          

 65 73  0  0  0  0            999 V2000
   12.9636   -8.2500    0.0000 C   0  0  0  0  0  0  0  0  0  0  0  0
   12.9636   -9.0750    0.0000 C   0  0  1  0  0  0  0  0  0  0  0  0
   13.6780   -9.4875    0.0000 C   0  0  0  0  0  0  0  0  0  0  0  0
   14.3925   -9.0750    0.0000 C   0  0  0  0  0  0  0  0  0  0  0  0
   14.3925   -8.2500    0.0000 C   0  0  2  0  0  0  0  0  0  0  0  0
   13.6780   -7.8375    0.0000 C   0  0  2  0  0  0  0  0  0  0  0  0
   15.1070   -9.4875    0.0000 C   0  0  0  0  0  0  0  0  0  0  0  0
   15.8214   -9.0750    0.0000 C   0  0  0  0  0  0  0  0  0  0  0  0
   15.8214   -8.2500    0.0000 C   0  0  2  0  0  0  0  0  0  0  0  0
   15.1070   -7.8375    0.0000 C   0  0  2  0  0  0  0  0  0  0  0  0
   16.5359   -7.8375    0.0000 C   0  0  1  0  0  0  0  0  0  0  0  0
   16.5359   -7.0125    0.0000 C   0  0  1  0  0  0  0  0  0  0  0  0
   15.8214   -6.6000    0.0000 C   0  0  0  0  0  0  0  0  0  0  0  0
   15.1070   -7.0125    0.0000 C   0  0  0  0  0  0  0  0  0  0  0  0
   12.2491   -9.4875    0.0000 O   0  0  0  0  0  0  0  0  0  0  0  0
   14.3925   -7.4250    0.0000 C   0  0  0  0  0  0  0  0  0  0  0  0
   16.5359   -8.6625    0.0000 H   0  0  0  0  0  0  0  0  0  0  0  0
   16.5359   -6.1875    0.0000 C   0  0  0  0  0  0  0  0  0  0  0  0
   17.3205   -8.0924    0.0000 C   0  0  0  0  0  0  0  0  0  0  0  0
   17.8055   -7.4250    0.0000 C   0  0  1  0  0  0  0  0  0  0  0  0
   17.3205   -6.7576    0.0000 C   0  0  2  0  0  0  0  0  0  0  0  0
   18.5901   -7.1701    0.0000 O   0  0  0  0  0  0  0  0  0  0  0  0
   18.5901   -6.3451    0.0000 C   0  0  1  0  0  0  0  0  0  0  0  0
   17.8055   -6.0901    0.0000 C   0  0  1  0  0  0  0  0  0  0  0  0
   19.3438   -6.6806    0.0000 C   0  0  0  0  0  0  0  0  0  0  0  0
   20.0112   -6.1957    0.0000 C   0  0  0  0  0  0  0  0  0  0  0  0
   19.9250   -5.3752    0.0000 C   0  0  0  0  0  0  0  0  0  0  0  0
   19.1713   -5.0397    0.0000 C   0  0  0  0  0  0  0  0  0  0  0  0
   18.5038   -5.5246    0.0000 O   0  0  0  0  0  0  0  0  0  0  0  0
   16.9080   -6.0431    0.0000 H   0  0  0  0  0  0  0  0  0  0  0  0
   17.5505   -5.3055    0.0000 C   0  0  0  0  0  0  0  0  0  0  0  0
   20.5924   -4.8903    0.0000 C   0  0  0  0  0  0  0  0  0  0  0  0
   18.2180   -8.1395    0.0000 H   0  0  0  0  0  0  0  0  0  0  0  0
   15.1070   -8.6625    0.0000 H   0  0  0  0  0  0  0  0  0  0  0  0
   15.8214   -7.4250    0.0000 H   0  0  0  0  0  0  0  0  0  0  0  0
   13.6780   -7.0125    0.0000 O   0  0  0  0  0  0  0  0  0  0  0  0
   12.9653   -6.5970    0.0000 C   0  0  2  0  0  0  0  0  0  0  0  0
   12.9688   -5.7720    0.0000 O   0  0  0  0  0  0  0  0  0  0  0  0
   12.2561   -5.3565    0.0000 C   0  0  1  0  0  0  0  0  0  0  0  0
   11.5399   -5.7660    0.0000 C   0  0  1  0  0  0  0  0  0  0  0  0
   11.5364   -6.5910    0.0000 C   0  0  1  0  0  0  0  0  0  0  0  0
   12.2491   -7.0065    0.0000 C   0  0  1  0  0  0  0  0  0  0  0  0
   12.2456   -7.8315    0.0000 O   0  0  0  0  0  0  0  0  0  0  0  0
   10.8202   -7.0004    0.0000 O   0  0  0  0  0  0  0  0  0  0  0  0
   10.8271   -5.3505    0.0000 O   0  0  0  0  0  0  0  0  0  0  0  0
   12.2595   -4.5315    0.0000 C   0  0  0  0  0  0  0  0  0  0  0  0
    9.9952   -6.9908    0.0000 C   0  0  2  0  0  0  0  0  0  0  0  0
    9.5970   -6.2683    0.0000 O   0  0  0  0  0  0  0  0  0  0  0  0
    8.7721   -6.2520    0.0000 C   0  0  0  0  0  0  0  0  0  0  0  0
    8.3456   -6.9581    0.0000 C   0  0  2  0  0  0  0  0  0  0  0  0
    8.7613   -7.6704    0.0000 C   0  0  1  0  0  0  0  0  0  0  0  0
    9.6035   -7.6766    0.0000 C   0  0  1  0  0  0  0  0  0  0  0  0
   10.0151   -8.3916    0.0000 O   0  0  0  0  0  0  0  0  0  0  0  0
    8.3478   -8.3844    0.0000 O   0  0  0  0  0  0  0  0  0  0  0  0
    7.5206   -6.9519    0.0000 O   0  0  0  0  0  0  0  0  0  0  0  0
    9.6057   -9.1079    0.0000 C   0  0  2  0  0  0  0  0  0  0  0  0
    8.7807   -9.1114    0.0000 O   0  0  0  0  0  0  0  0  0  0  0  0
    8.3712   -9.8277    0.0000 C   0  0  2  0  0  0  0  0  0  0  0  0
    8.7868  -10.5404    0.0000 C   0  0  1  0  0  0  0  0  0  0  0  0
    9.6118  -10.5368    0.0000 C   0  0  2  0  0  0  0  0  0  0  0  0
   10.0212   -9.8206    0.0000 C   0  0  1  0  0  0  0  0  0  0  0  0
    8.3774  -11.2566    0.0000 O   0  0  0  0  0  0  0  0  0  0  0  0
   10.0274  -11.2495    0.0000 O   0  0  0  0  0  0  0  0  0  0  0  0
   10.8462   -9.8170    0.0000 O   0  0  0  0  0  0  0  0  0  0  0  0
    7.5463   -9.8312    0.0000 C   0  0  0  0  0  0  0  0  0  0  0  0
  1  2  1  0  0  0  0
  2  3  1  0  0  0  0
  3  4  1  0  0  0  0
  4  5  1  0  0  0  0
  5  6  1  0  0  0  0
  6  1  1  0  0  0  0
  4  7  2  0  0  0  0
  7  8  1  0  0  0  0
  8  9  1  0  0  0  0
  9 10  1  0  0  0  0
 10  5  1  0  0  0  0
  9 11  1  0  0  0  0
 11 12  1  0  0  0  0
 12 13  1  0  0  0  0
 13 14  1  0  0  0  0
 14 10  1  0  0  0  0
  2 15  1  1  0  0  0
  5 16  1  1  0  0  0
 11 17  1  6  0  0  0
 12 18  1  1  0  0  0
 11 19  1  0  0  0  0
 19 20  1  0  0  0  0
 20 21  1  0  0  0  0
 21 12  1  0  0  0  0
 20 22  1  0  0  0  0
 23 22  1  6  0  0  0
 23 24  1  0  0  0  0
 24 21  1  0  0  0  0
 23 25  1  0  0  0  0
 25 26  1  0  0  0  0
 26 27  1  0  0  0  0
 27 28  1  0  0  0  0
 28 29  1  0  0  0  0
 29 23  1  0  0  0  0
 21 30  1  6  0  0  0
 24 31  1  6  0  0  0
 27 32  2  0  0  0  0
 20 33  1  6  0  0  0
 10 34  1  6  0  0  0
  9 35  1  1  0  0  0
  6 36  1  1  0  0  0
 37 36  1  1  0  0  0
 37 38  1  0  0  0  0
 38 39  1  0  0  0  0
 39 40  1  0  0  0  0
 40 41  1  0  0  0  0
 41 42  1  0  0  0  0
 42 37  1  0  0  0  0
 42 43  1  6  0  0  0
 41 44  1  1  0  0  0
 40 45  1  1  0  0  0
 39 46  1  1  0  0  0
 47 44  1  1  0  0  0
 47 48  1  0  0  0  0
 48 49  1  0  0  0  0
 49 50  1  0  0  0  0
 50 51  1  0  0  0  0
 51 52  1  0  0  0  0
 52 47  1  0  0  0  0
 52 53  1  6  0  0  0
 51 54  1  1  0  0  0
 50 55  1  6  0  0  0
 56 53  1  1  0  0  0
 56 57  1  0  0  0  0
 57 58  1  0  0  0  0
 58 59  1  0  0  0  0
 59 60  1  0  0  0  0
 60 61  1  0  0  0  0
 61 56  1  0  0  0  0
 59 62  1  1  0  0  0
 60 63  1  6  0  0  0
 61 64  1  6  0  0  0
 58 65  1  6  0  0  0
M  END
>  <cdx:fragmentId>
109

$$$$
