99569.cdx
  Mrv1902 05222410262D          

 34 37  0  0  0  0            999 V2000
    4.2262   -6.9575    0.0000 C   0  0  0  0  0  0  0  0  0  0  0  0
    4.2262   -7.7825    0.0000 C   0  0  2  0  0  0  0  0  0  0  0  0
    4.9406   -8.1950    0.0000 O   0  0  0  0  0  0  0  0  0  0  0  0
    5.6551   -7.7825    0.0000 C   0  0  2  0  0  0  0  0  0  0  0  0
    5.6551   -6.9575    0.0000 C   0  0  1  0  0  0  0  0  0  0  0  0
    4.9406   -6.5450    0.0000 C   0  0  1  0  0  0  0  0  0  0  0  0
    4.9406   -5.7200    0.0000 O   0  0  0  0  0  0  0  0  0  0  0  0
    6.3696   -6.5450    0.0000 O   0  0  0  0  0  0  0  0  0  0  0  0
    4.2262   -8.6075    0.0000 O   0  0  0  0  0  0  0  0  0  0  0  0
    5.6551   -8.6075    0.0000 C   0  0  1  0  0  0  0  0  0  0  0  0
    6.2385   -9.1909    0.0000 C   0  0  0  0  0  0  0  0  0  0  0  0
    7.0354   -8.9773    0.0000 O   0  0  0  0  0  0  0  0  0  0  0  0
    3.5117   -8.1950    0.0000 C   0  0  0  0  0  0  0  0  0  0  0  0
    3.5117   -9.0200    0.0000 O   0  0  0  0  0  0  0  0  0  0  0  0
    2.7972   -7.7825    0.0000 O   0  0  0  0  0  0  0  0  0  0  0  0
    6.3824   -5.7285    0.0000 C   0  0  0  0  0  0  0  0  0  0  0  0
    7.0969   -5.3160    0.0000 C   0  0  0  0  0  0  0  0  0  0  0  0
    5.6679   -5.3160    0.0000 O   0  0  0  0  0  0  0  0  0  0  0  0
   12.1520   -9.4862    0.0000 O   0  0  0  0  0  0  0  0  0  0  0  0
   10.2568  -10.5690    0.0000 C   0  0  0  0  0  0  0  0  0  0  0  0
   11.0676  -10.4168    0.0000 C   0  0  0  0  0  0  0  0  0  0  0  0
   11.3412   -9.6385    0.0000 C   0  0  0  0  0  0  0  0  0  0  0  0
   10.8039   -9.0124    0.0000 C   0  0  0  0  0  0  0  0  0  0  0  0
    9.9931   -9.1646    0.0000 C   0  0  0  0  0  0  0  0  0  0  0  0
    9.7195   -9.9429    0.0000 C   0  0  0  0  0  0  0  0  0  0  0  0
    8.9087  -10.0952    0.0000 C   0  0  0  0  0  0  0  0  0  0  0  0
    7.2870  -10.3997    0.0000 O   0  0  0  0  0  0  0  0  0  0  0  0
    8.3714   -9.4691    0.0000 C   0  0  0  0  0  0  0  0  0  0  0  0
    7.5606   -9.6213    0.0000 C   0  0  0  0  0  0  0  0  0  0  0  0
    7.8114   -5.7285    0.0000 C   0  0  0  0  0  0  0  0  0  0  0  0
    8.5258   -5.3160    0.0000 C   0  0  0  0  0  0  0  0  0  0  0  0
    8.5258   -4.4910    0.0000 C   0  0  0  0  0  0  0  0  0  0  0  0
    7.8114   -4.0785    0.0000 C   0  0  0  0  0  0  0  0  0  0  0  0
    7.0969   -4.4910    0.0000 C   0  0  0  0  0  0  0  0  0  0  0  0
  1  2  1  0  0  0  0
  2  3  1  1  0  0  0
  4  3  1  1  0  0  0
  4  5  1  0  0  0  0
  5  6  1  0  0  0  0
  6  1  1  0  0  0  0
  6  7  1  6  0  0  0
  5  8  1  1  0  0  0
  2  9  1  0  0  0  0
  4 10  1  0  0  0  0
  9 10  1  0  0  0  0
 10 11  1  6  0  0  0
 11 12  1  0  0  0  0
  2 13  1  0  0  0  0
 13 14  2  0  0  0  0
 13 15  1  0  0  0  0
 16 17  1  0  0  0  0
 16 18  2  0  0  0  0
 22 19  1  0  0  0  0
 20 25  1  0  0  0  0
 21 20  2  0  0  0  0
 22 21  1  0  0  0  0
 23 22  2  0  0  0  0
 24 23  1  0  0  0  0
 25 24  2  0  0  0  0
 26 25  1  0  0  0  0
 28 26  2  0  0  0  0
 29 27  2  0  0  0  0
 29 28  1  0  0  0  0
 16  8  1  0  0  0  0
 29 12  1  0  0  0  0
 17 30  2  0  0  0  0
 30 31  1  0  0  0  0
 31 32  2  0  0  0  0
 32 33  1  0  0  0  0
 33 34  2  0  0  0  0
 34 17  1  0  0  0  0
M  END
>  <cdx:fragmentId>
5

$$$$
