99562.cdx
  Mrv1902 05222410192D          

 47 52  0  0  0  0            999 V2000
    5.2081  -10.5665    0.0000 C   0  0  1  0  0  0  0  0  0  0  0  0
    5.2081   -9.7415    0.0000 C   0  0  0  0  0  0  0  0  0  0  0  0
    5.9226   -9.3290    0.0000 C   0  0  0  0  0  0  0  0  0  0  0  0
    5.9226  -10.9790    0.0000 C   0  0  2  0  0  0  0  0  0  0  0  0
    6.3351  -11.6935    0.0000 C   0  0  0  0  0  0  0  0  0  0  0  0
    5.5101  -11.6935    0.0000 C   0  0  0  0  0  0  0  0  0  0  0  0
    6.6371  -10.5665    0.0000 C   0  0  2  0  0  0  0  0  0  0  0  0
    6.6371  -11.3915    0.0000 H   0  0  0  0  0  0  0  0  0  0  0  0
    7.3515  -10.9790    0.0000 C   0  0  0  0  0  0  0  0  0  0  0  0
    8.0660  -10.5665    0.0000 C   0  0  0  0  0  0  0  0  0  0  0  0
    8.0660   -9.7415    0.0000 C   0  0  1  0  0  0  0  0  0  0  0  0
    8.7805   -9.3290    0.0000 C   0  0  2  0  0  0  0  0  0  0  0  0
    8.7805  -10.1540    0.0000 C   0  0  0  0  0  0  0  0  0  0  0  0
    9.5651   -9.5840    0.0000 C   0  0  0  0  0  0  0  0  0  0  0  0
   10.0500   -8.9165    0.0000 C   0  0  0  0  0  0  0  0  0  0  0  0
    9.5651   -8.2491    0.0000 C   0  0  2  0  0  0  0  0  0  0  0  0
    9.8200   -7.4645    0.0000 C   0  0  1  0  0  0  0  0  0  0  0  0
   10.6270   -7.2930    0.0000 C   0  0  0  0  0  0  0  0  0  0  0  0
   10.8820   -6.5083    0.0000 C   0  0  0  0  0  0  0  0  0  0  0  0
   11.6889   -6.3368    0.0000 C   0  0  0  0  0  0  0  0  0  0  0  0
    9.2680   -6.8514    0.0000 C   0  0  0  0  0  0  0  0  0  0  0  0
    8.7805   -8.5040    0.0000 C   0  0  2  0  0  0  0  0  0  0  0  0
    8.7805   -7.6790    0.0000 C   0  0  0  0  0  0  0  0  0  0  0  0
    8.0660   -8.0915    0.0000 C   0  0  1  0  0  0  0  0  0  0  0  0
    7.3515   -8.5040    0.0000 C   0  0  0  0  0  0  0  0  0  0  0  0
    7.3515   -9.3290    0.0000 C   0  0  1  0  0  0  0  0  0  0  0  0
    6.6371   -9.7415    0.0000 C   0  0  1  0  0  0  0  0  0  0  0  0
    6.6371   -8.9165    0.0000 C   0  0  0  0  0  0  0  0  0  0  0  0
   10.8750   -8.9165    0.0000 O   0  0  0  0  0  0  0  0  0  0  0  0
   10.3299   -5.8952    0.0000 O   0  0  0  0  0  0  0  0  0  0  0  0
    8.0660   -7.2665    0.0000 O   0  0  0  0  0  0  0  0  0  0  0  0
    7.3515   -6.8540    0.0000 C   0  0  0  0  0  0  0  0  0  0  0  0
    7.3515   -6.0290    0.0000 O   0  0  0  0  0  0  0  0  0  0  0  0
    6.6371   -7.2665    0.0000 C   0  0  0  0  0  0  0  0  0  0  0  0
   11.9439   -5.5522    0.0000 O   0  0  0  0  0  0  0  0  0  0  0  0
    8.0660   -8.9165    0.0000 H   0  0  0  0  0  0  0  0  0  0  0  0
    4.4937  -10.9790    0.0000 O   0  0  0  0  0  0  0  0  0  0  0  0
   10.3620   -8.0356    0.0000 H   0  0  0  0  0  0  0  0  0  0  0  0
    3.7792  -10.5665    0.0000 C   0  0  2  0  0  0  0  0  0  0  0  0
    3.7792   -9.7415    0.0000 O   0  0  0  0  0  0  0  0  0  0  0  0
    3.0647   -9.3290    0.0000 C   0  0  0  0  0  0  0  0  0  0  0  0
    2.3502   -9.7415    0.0000 C   0  0  1  0  0  0  0  0  0  0  0  0
    2.3502  -10.5665    0.0000 C   0  0  1  0  0  0  0  0  0  0  0  0
    3.0647  -10.9790    0.0000 C   0  0  1  0  0  0  0  0  0  0  0  0
    3.0647  -11.8040    0.0000 O   0  0  0  0  0  0  0  0  0  0  0  0
    1.6358  -10.9790    0.0000 O   0  0  0  0  0  0  0  0  0  0  0  0
    1.6358   -9.3290    0.0000 O   0  0  0  0  0  0  0  0  0  0  0  0
  1  2  1  0  0  0  0
  2  3  1  0  0  0  0
  1  4  1  0  0  0  0
  4  5  1  0  0  0  0
  4  6  1  1  0  0  0
  4  7  1  0  0  0  0
  7  8  1  6  0  0  0
  7  9  1  0  0  0  0
  9 10  1  0  0  0  0
 10 11  1  0  0  0  0
 11 12  1  0  0  0  0
 12 13  1  6  0  0  0
 12 14  1  0  0  0  0
 14 15  1  0  0  0  0
 16 15  1  0  0  0  0
 16 17  1  0  0  0  0
 17 18  1  0  0  0  0
 18 19  1  0  0  0  0
 19 20  1  0  0  0  0
 17 21  1  6  0  0  0
 16 22  1  0  0  0  0
 12 22  1  0  0  0  0
 22 23  1  1  0  0  0
 22 24  1  0  0  0  0
 24 25  1  0  0  0  0
 25 26  1  0  0  0  0
 11 26  1  0  0  0  0
 26 27  1  0  0  0  0
  3 27  1  0  0  0  0
  7 27  1  0  0  0  0
 27 28  1  1  0  0  0
 26 28  1  1  0  0  0
 15 29  2  0  0  0  0
 19 30  2  0  0  0  0
 32 33  2  0  0  0  0
 32 34  1  0  0  0  0
 31 32  1  0  0  0  0
 24 31  1  1  0  0  0
 20 35  1  0  0  0  0
 11 36  1  1  0  0  0
  1 37  1  1  0  0  0
 16 38  1  6  0  0  0
 39 37  1  1  0  0  0
 39 40  1  0  0  0  0
 40 41  1  0  0  0  0
 41 42  1  0  0  0  0
 42 43  1  0  0  0  0
 43 44  1  0  0  0  0
 44 39  1  0  0  0  0
 44 45  1  6  0  0  0
 43 46  1  1  0  0  0
 42 47  1  1  0  0  0
M  END
>  <cdx:fragmentId>
104

$$$$
