99565.cdx
  Mrv1902 05222410202D          

 63 70  0  0  0  0            999 V2000
    5.6012   -8.5113    0.0000 C   0  0  0  0  0  0  0  0  0  0  0  0
    5.6012   -9.3362    0.0000 C   0  0  1  0  0  0  0  0  0  0  0  0
    6.3156   -9.7487    0.0000 C   0  0  2  0  0  0  0  0  0  0  0  0
    7.0301   -9.3362    0.0000 C   0  0  1  0  0  0  0  0  0  0  0  0
    7.0301   -8.5113    0.0000 C   0  0  2  0  0  0  0  0  0  0  0  0
    6.3156   -8.0987    0.0000 C   0  0  0  0  0  0  0  0  0  0  0  0
    7.7446   -9.7487    0.0000 C   0  0  0  0  0  0  0  0  0  0  0  0
    8.4591   -9.3362    0.0000 C   0  0  0  0  0  0  0  0  0  0  0  0
    8.4591   -8.5113    0.0000 C   0  0  2  0  0  0  0  0  0  0  0  0
    7.7446   -8.0987    0.0000 C   0  0  1  0  0  0  0  0  0  0  0  0
    9.1735   -8.0987    0.0000 C   0  0  1  0  0  0  0  0  0  0  0  0
    9.1735   -7.2738    0.0000 C   0  0  2  0  0  0  0  0  0  0  0  0
    8.4591   -6.8613    0.0000 C   0  0  0  0  0  0  0  0  0  0  0  0
    7.7446   -7.2738    0.0000 C   0  0  0  0  0  0  0  0  0  0  0  0
    9.9582   -8.3537    0.0000 C   0  0  2  0  0  0  0  0  0  0  0  0
   10.4431   -7.6863    0.0000 C   0  0  2  0  0  0  0  0  0  0  0  0
    9.9582   -7.0188    0.0000 C   0  0  2  0  0  0  0  0  0  0  0  0
    6.7281  -10.4632    0.0000 C   0  0  0  0  0  0  0  0  0  0  0  0
    4.8867   -9.7487    0.0000 O   0  0  0  0  0  0  0  0  0  0  0  0
    5.9031  -10.4632    0.0000 C   0  0  0  0  0  0  0  0  0  0  0  0
    7.0301   -7.6863    0.0000 C   0  0  0  0  0  0  0  0  0  0  0  0
    9.1735   -6.4487    0.0000 C   0  0  0  0  0  0  0  0  0  0  0  0
    9.1735   -8.9238    0.0000 C   0  0  0  0  0  0  0  0  0  0  0  0
    3.4786   -8.0903    0.0000 C   0  0  0  0  0  0  0  0  0  0  0  0
    2.7629   -8.5006    0.0000 C   0  0  1  0  0  0  0  0  0  0  0  0
    2.7604   -9.3256    0.0000 C   0  0  1  0  0  0  0  0  0  0  0  0
    3.4737   -9.7403    0.0000 C   0  0  2  0  0  0  0  0  0  0  0  0
    4.1894   -9.3299    0.0000 C   0  0  1  0  0  0  0  0  0  0  0  0
    4.1919   -8.5049    0.0000 O   0  0  0  0  0  0  0  0  0  0  0  0
    2.0447   -9.7360    0.0000 O   0  0  0  0  0  0  0  0  0  0  0  0
    2.0497   -8.0860    0.0000 O   0  0  0  0  0  0  0  0  0  0  0  0
    3.4712  -10.5653    0.0000 O   0  0  0  0  0  0  0  0  0  0  0  0
   10.2131   -9.1383    0.0000 O   0  0  0  0  0  0  0  0  0  0  0  0
    7.0301  -10.1612    0.0000 H   0  0  0  0  0  0  0  0  0  0  0  0
   10.8556   -8.4007    0.0000 O   0  0  0  0  0  0  0  0  0  0  0  0
    9.5457   -6.3043    0.0000 H   0  0  0  0  0  0  0  0  0  0  0  0
   10.7525   -6.9850    0.0000 O   0  0  0  0  0  0  0  0  0  0  0  0
   11.5991   -6.8463    0.0000 C   0  0  2  0  0  0  0  0  0  0  0  0
   11.1142   -6.1789    0.0000 C   0  0  0  0  0  0  0  0  0  0  0  0
   10.2937   -6.2651    0.0000 C   0  0  1  0  0  0  0  0  0  0  0  0
    9.8088   -5.5977    0.0000 C   0  0  0  0  0  0  0  0  0  0  0  0
   12.4196   -6.7601    0.0000 C   0  0  1  0  0  0  0  0  0  0  0  0
   12.9045   -7.4275    0.0000 C   0  0  0  0  0  0  0  0  0  0  0  0
   13.3170   -8.1420    0.0000 O   0  0  0  0  0  0  0  0  0  0  0  0
   12.1900   -7.8400    0.0000 C   0  0  0  0  0  0  0  0  0  0  0  0
   13.6190   -7.0150    0.0000 C   0  0  0  0  0  0  0  0  0  0  0  0
   11.8126   -6.0494    0.0000 H   0  0  0  0  0  0  0  0  0  0  0  0
   12.7552   -6.0064    0.0000 O   0  0  0  0  0  0  0  0  0  0  0  0
    8.4591   -7.6863    0.0000 H   0  0  0  0  0  0  0  0  0  0  0  0
   12.2702   -5.3390    0.0000 C   0  0  0  0  0  0  0  0  0  0  0  0
   12.6058   -4.5853    0.0000 O   0  0  0  0  0  0  0  0  0  0  0  0
   11.4498   -5.4252    0.0000 C   0  0  0  0  0  0  0  0  0  0  0  0
    9.8250   -9.8663    0.0000 C   0  0  2  0  0  0  0  0  0  0  0  0
    9.0005   -9.8942    0.0000 O   0  0  0  0  0  0  0  0  0  0  0  0
    8.6124  -10.6222    0.0000 C   0  0  1  0  0  0  0  0  0  0  0  0
    9.0488  -11.3223    0.0000 C   0  0  2  0  0  0  0  0  0  0  0  0
    9.8733  -11.2944    0.0000 C   0  0  1  0  0  0  0  0  0  0  0  0
   10.2614  -10.5664    0.0000 C   0  0  1  0  0  0  0  0  0  0  0  0
    7.7878  -10.6501    0.0000 C   0  0  0  0  0  0  0  0  0  0  0  0
   10.3097  -11.9946    0.0000 O   0  0  0  0  0  0  0  0  0  0  0  0
    8.6607  -12.0504    0.0000 O   0  0  0  0  0  0  0  0  0  0  0  0
   11.0859  -10.5385    0.0000 O   0  0  0  0  0  0  0  0  0  0  0  0
    7.3997  -11.3782    0.0000 O   0  0  0  0  0  0  0  0  0  0  0  0
  1  2  1  0  0  0  0
  2  3  1  0  0  0  0
  3  4  1  0  0  0  0
  4  5  1  0  0  0  0
  5  6  1  0  0  0  0
  6  1  1  0  0  0  0
  4  7  1  0  0  0  0
  7  8  1  0  0  0  0
  8  9  1  0  0  0  0
  9 10  1  0  0  0  0
 10  5  1  0  0  0  0
  9 11  1  0  0  0  0
 11 12  1  0  0  0  0
 12 13  1  0  0  0  0
 13 14  1  0  0  0  0
 14 10  1  0  0  0  0
 11 15  1  0  0  0  0
 15 16  1  0  0  0  0
 16 17  1  0  0  0  0
 17 12  1  0  0  0  0
  3 18  1  0  0  0  0
  2 19  1  1  0  0  0
  3 20  1  1  0  0  0
  5 21  1  1  0  0  0
 10 21  1  1  0  0  0
 12 22  1  1  0  0  0
 11 23  1  6  0  0  0
 24 25  1  0  0  0  0
 25 26  1  0  0  0  0
 26 27  1  0  0  0  0
 27 28  1  0  0  0  0
 28 29  1  0  0  0  0
 29 24  1  0  0  0  0
 26 30  1  1  0  0  0
 25 31  1  1  0  0  0
 27 32  1  6  0  0  0
 28 19  1  1  0  0  0
 15 33  1  6  0  0  0
  4 34  1  6  0  0  0
 16 35  1  6  0  0  0
 17 36  1  6  0  0  0
 16 37  1  0  0  0  0
 37 38  1  0  0  0  0
 38 39  1  0  0  0  0
 39 40  1  0  0  0  0
 40 17  1  0  0  0  0
 40 41  1  6  0  0  0
 38 42  1  0  0  0  0
 42 43  1  0  0  0  0
 43 44  1  0  0  0  0
 43 45  1  0  0  0  0
 43 46  1  0  0  0  0
 38 47  1  1  0  0  0
 42 48  1  6  0  0  0
  9 49  1  1  0  0  0
 48 50  1  0  0  0  0
 50 51  2  0  0  0  0
 50 52  1  0  0  0  0
 53 33  1  1  0  0  0
 53 54  1  0  0  0  0
 54 55  1  0  0  0  0
 55 56  1  0  0  0  0
 56 57  1  0  0  0  0
 57 58  1  0  0  0  0
 58 53  1  0  0  0  0
 55 59  1  1  0  0  0
 57 60  1  1  0  0  0
 56 61  1  6  0  0  0
 58 62  1  6  0  0  0
 59 63  1  0  0  0  0
M  END
>  <cdx:fragmentId>
5

$$$$
