99561.cdx
  Mrv1902 05222410182D          

 54 61  0  0  0  0            999 V2000
   10.4459   -7.5344    0.0000 C   0  0  2  0  0  0  0  0  0  0  0  0
    9.9610   -8.2018    0.0000 C   0  0  1  0  0  0  0  0  0  0  0  0
    9.1764   -7.9469    0.0000 C   0  0  1  0  0  0  0  0  0  0  0  0
    8.4619   -8.3594    0.0000 C   0  0  0  0  0  0  0  0  0  0  0  0
    8.4619   -9.1844    0.0000 C   0  0  0  0  0  0  0  0  0  0  0  0
    7.7474   -9.5969    0.0000 C   0  0  0  0  0  0  0  0  0  0  0  0
    7.0330   -9.1844    0.0000 C   0  0  1  0  0  0  0  0  0  0  0  0
    6.3185   -9.5969    0.0000 C   0  0  1  0  0  0  0  0  0  0  0  0
    5.6040   -9.1844    0.0000 C   0  0  2  0  0  0  0  0  0  0  0  0
    5.6040   -8.3594    0.0000 C   0  0  0  0  0  0  0  0  0  0  0  0
    6.3185   -7.9469    0.0000 C   0  0  0  0  0  0  0  0  0  0  0  0
    7.0330   -8.3594    0.0000 C   0  0  1  0  0  0  0  0  0  0  0  0
    7.0330   -7.5344    0.0000 C   0  0  0  0  0  0  0  0  0  0  0  0
    7.7474   -7.9469    0.0000 C   0  0  1  0  0  0  0  0  0  0  0  0
    7.7474   -7.1219    0.0000 C   0  0  0  0  0  0  0  0  0  0  0  0
    8.4619   -6.7094    0.0000 C   0  0  0  0  0  0  0  0  0  0  0  0
    9.1764   -7.1219    0.0000 C   0  0  2  0  0  0  0  0  0  0  0  0
    9.9610   -6.8670    0.0000 C   0  0  1  0  0  0  0  0  0  0  0  0
   10.1805   -6.0717    0.0000 C   0  0  1  0  0  0  0  0  0  0  0  0
   10.9391   -5.7474    0.0000 C   0  0  0  0  0  0  0  0  0  0  0  0
   11.6656   -6.1384    0.0000 C   0  0  2  0  0  0  0  0  0  0  0  0
   11.8129   -6.9501    0.0000 C   0  0  1  0  0  0  0  0  0  0  0  0
   11.2701   -7.5714    0.0000 O   0  0  0  0  0  0  0  0  0  0  0  0
   10.6538   -6.4839    0.0000 O   0  0  0  0  0  0  0  0  0  0  0  0
   10.2159   -8.9865    0.0000 O   0  0  0  0  0  0  0  0  0  0  0  0
    4.8896   -9.5969    0.0000 O   0  0  0  0  0  0  0  0  0  0  0  0
    9.5592   -5.5289    0.0000 C   0  0  0  0  0  0  0  0  0  0  0  0
    9.1764   -6.2969    0.0000 C   0  0  0  0  0  0  0  0  0  0  0  0
    6.7310  -10.3114    0.0000 C   0  0  0  0  0  0  0  0  0  0  0  0
    5.9060  -10.3114    0.0000 C   0  0  0  0  0  0  0  0  0  0  0  0
    9.1764   -8.7719    0.0000 C   0  0  0  0  0  0  0  0  0  0  0  0
   12.3946   -7.9665    0.0000 C   0  0  0  0  0  0  0  0  0  0  0  0
   12.6082   -7.1696    0.0000 C   0  0  0  0  0  0  0  0  0  0  0  0
   12.8217   -6.3727    0.0000 C   0  0  0  0  0  0  0  0  0  0  0  0
   13.4034   -7.3891    0.0000 O   0  0  0  0  0  0  0  0  0  0  0  0
    7.0330  -10.0094    0.0000 H   0  0  0  0  0  0  0  0  0  0  0  0
    9.4728   -6.2019    0.0000 H   0  0  0  0  0  0  0  0  0  0  0  0
   12.3330   -5.6535    0.0000 H   0  0  0  0  0  0  0  0  0  0  0  0
   12.5274   -6.5376    0.0000 H   0  0  0  0  0  0  0  0  0  0  0  0
    4.1751   -9.1844    0.0000 C   0  0  2  0  0  0  0  0  0  0  0  0
    4.1751   -8.3594    0.0000 O   0  0  0  0  0  0  0  0  0  0  0  0
    3.4606   -7.9469    0.0000 C   0  0  0  0  0  0  0  0  0  0  0  0
    2.7461   -8.3594    0.0000 C   0  0  2  0  0  0  0  0  0  0  0  0
    2.7461   -9.1844    0.0000 C   0  0  1  0  0  0  0  0  0  0  0  0
    3.4606   -9.5969    0.0000 C   0  0  1  0  0  0  0  0  0  0  0  0
    3.4606  -10.4219    0.0000 O   0  0  0  0  0  0  0  0  0  0  0  0
    2.0317   -9.5969    0.0000 O   0  0  0  0  0  0  0  0  0  0  0  0
    2.0317   -7.9469    0.0000 O   0  0  0  0  0  0  0  0  0  0  0  0
    4.1751  -10.8344    0.0000 C   0  0  0  0  0  0  0  0  0  0  0  0
    4.1751  -11.6594    0.0000 O   0  0  0  0  0  0  0  0  0  0  0  0
    4.8896  -10.4219    0.0000 C   0  0  0  0  0  0  0  0  0  0  0  0
    1.3172   -8.3594    0.0000 C   0  0  0  0  0  0  0  0  0  0  0  0
    0.6027   -7.9469    0.0000 C   0  0  0  0  0  0  0  0  0  0  0  0
    1.3172   -9.1844    0.0000 O   0  0  0  0  0  0  0  0  0  0  0  0
  1  2  1  0  0  0  0
  2  3  1  0  0  0  0
  3  4  1  0  0  0  0
  4  5  2  0  0  0  0
  5  6  1  0  0  0  0
  6  7  1  0  0  0  0
  7  8  1  0  0  0  0
  8  9  1  0  0  0  0
  9 10  1  0  0  0  0
 10 11  1  0  0  0  0
 11 12  1  0  0  0  0
 12 13  1  1  0  0  0
 14 13  1  1  0  0  0
 14 15  1  0  0  0  0
 15 16  1  0  0  0  0
 16 17  1  0  0  0  0
 17 18  1  0  0  0  0
 18 19  1  0  0  0  0
 19 20  1  0  0  0  0
 20 21  1  0  0  0  0
 21 22  1  0  0  0  0
 22 23  1  0  0  0  0
  1 23  1  0  0  0  0
  1 24  1  1  0  0  0
 21 24  1  0  0  0  0
  1 18  1  0  0  0  0
  3 17  1  0  0  0  0
 12 14  1  0  0  0  0
  4 14  1  0  0  0  0
  7 12  1  0  0  0  0
  2 25  1  6  0  0  0
  9 26  1  1  0  0  0
 19 27  1  6  0  0  0
 17 28  1  1  0  0  0
  8 29  1  0  0  0  0
  8 30  1  1  0  0  0
  3 31  1  6  0  0  0
 32 33  1  0  0  0  0
 33 34  1  0  0  0  0
 33 35  1  0  0  0  0
 22 33  1  0  0  0  0
  7 36  1  6  0  0  0
 18 37  1  6  0  0  0
 21 38  1  1  0  0  0
 22 39  1  1  0  0  0
 40 26  1  1  0  0  0
 40 41  1  0  0  0  0
 41 42  1  0  0  0  0
 42 43  1  0  0  0  0
 43 44  1  0  0  0  0
 44 45  1  0  0  0  0
 45 40  1  0  0  0  0
 45 46  1  6  0  0  0
 44 47  1  1  0  0  0
 43 48  1  6  0  0  0
 46 49  1  0  0  0  0
 49 50  2  0  0  0  0
 49 51  1  0  0  0  0
 48 52  1  0  0  0  0
 52 53  1  0  0  0  0
 52 54  2  0  0  0  0
M  END
>  <cdx:fragmentId>
74183

$$$$
