99576.cdx
  Mrv1902 05222410192D          

 79 88  0  0  0  0            999 V2000
   15.8388   -8.7397    0.0000 C   0  0  1  0  0  0  0  0  0  0  0  0
   16.5532   -8.3272    0.0000 C   0  0  2  0  0  0  0  0  0  0  0  0
   17.3378   -8.5822    0.0000 C   0  0  0  0  0  0  0  0  0  0  0  0
   17.8228   -7.9147    0.0000 C   0  0  2  0  0  0  0  0  0  0  0  0
   18.6074   -7.6598    0.0000 O   0  0  0  0  0  0  0  0  0  0  0  0
   18.6074   -6.8348    0.0000 C   0  0  2  0  0  0  0  0  0  0  0  0
   17.8228   -6.5799    0.0000 C   0  0  2  0  0  0  0  0  0  0  0  0
   17.3378   -7.2473    0.0000 C   0  0  2  0  0  0  0  0  0  0  0  0
   16.5532   -7.5022    0.0000 C   0  0  1  0  0  0  0  0  0  0  0  0
   15.8388   -7.0897    0.0000 C   0  0  0  0  0  0  0  0  0  0  0  0
   15.1243   -7.5022    0.0000 C   0  0  0  0  0  0  0  0  0  0  0  0
   15.1243   -8.3272    0.0000 C   0  0  2  0  0  0  0  0  0  0  0  0
   14.4098   -8.7397    0.0000 C   0  0  1  0  0  0  0  0  0  0  0  0
   13.6953   -8.3272    0.0000 C   0  0  0  0  0  0  0  0  0  0  0  0
   12.9809   -8.7397    0.0000 C   0  0  0  0  0  0  0  0  0  0  0  0
   12.9809   -9.5647    0.0000 C   0  0  1  0  0  0  0  0  0  0  0  0
   13.6953   -9.9772    0.0000 C   0  0  0  0  0  0  0  0  0  0  0  0
   14.4098   -9.5647    0.0000 C   0  0  2  0  0  0  0  0  0  0  0  0
   15.1243   -9.9772    0.0000 C   0  0  1  0  0  0  0  0  0  0  0  0
   15.8388   -9.5647    0.0000 C   0  0  0  0  0  0  0  0  0  0  0  0
   18.5212   -6.0143    0.0000 O   0  0  0  0  0  0  0  0  0  0  0  0
   19.3611   -7.1703    0.0000 C   0  0  0  0  0  0  0  0  0  0  0  0
   20.0285   -6.6854    0.0000 C   0  0  0  0  0  0  0  0  0  0  0  0
   19.9423   -5.8649    0.0000 C   0  0  2  0  0  0  0  0  0  0  0  0
   19.1886   -5.5294    0.0000 C   0  0  0  0  0  0  0  0  0  0  0  0
   14.4098   -7.9147    0.0000 C   0  0  0  0  0  0  0  0  0  0  0  0
   16.5532   -6.6772    0.0000 C   0  0  0  0  0  0  0  0  0  0  0  0
   17.5678   -5.7952    0.0000 C   0  0  0  0  0  0  0  0  0  0  0  0
   20.6097   -5.3800    0.0000 C   0  0  0  0  0  0  0  0  0  0  0  0
   15.1243  -10.8022    0.0000 O   0  0  0  0  0  0  0  0  0  0  0  0
    9.4085   -9.9725    0.0000 O   0  0  0  0  0  0  0  0  0  0  0  0
   10.8361  -10.7999    0.0000 O   0  0  0  0  0  0  0  0  0  0  0  0
   11.5567   -7.0886    0.0000 O   0  0  0  0  0  0  0  0  0  0  0  0
   10.8415   -7.4999    0.0000 C   0  0  0  0  0  0  0  0  0  0  0  0
   12.2664   -9.9772    0.0000 O   0  0  0  0  0  0  0  0  0  0  0  0
   11.5526   -9.5636    0.0000 C   0  0  1  0  0  0  0  0  0  0  0  0
   10.8375   -9.9749    0.0000 C   0  0  1  0  0  0  0  0  0  0  0  0
   10.1237   -9.5612    0.0000 C   0  0  2  0  0  0  0  0  0  0  0  0
   10.1250   -8.7362    0.0000 C   0  0  2  0  0  0  0  0  0  0  0  0
   10.8402   -8.3249    0.0000 C   0  0  2  0  0  0  0  0  0  0  0  0
   11.5540   -8.7386    0.0000 O   0  0  0  0  0  0  0  0  0  0  0  0
    9.4112   -8.3225    0.0000 O   0  0  0  0  0  0  0  0  0  0  0  0
    9.4167   -5.0225    0.0000 O   0  0  0  0  0  0  0  0  0  0  0  0
   10.8456   -5.0249    0.0000 O   0  0  0  0  0  0  0  0  0  0  0  0
   10.8443   -5.8499    0.0000 C   0  0  0  0  0  0  0  0  0  0  0  0
    8.7370   -4.5233    0.0000 O   0  0  0  0  0  0  0  0  0  0  0  0
    7.9504   -3.0729    0.0000 O   0  0  0  0  0  0  0  0  0  0  0  0
    6.3010   -3.0289    0.0000 O   0  0  0  0  0  0  0  0  0  0  0  0
    6.2629   -4.4573    0.0000 C   0  0  0  0  0  0  0  0  0  0  0  0
    6.6943   -3.7541    0.0000 C   0  0  2  0  0  0  0  0  0  0  0  0
    7.5190   -3.7761    0.0000 C   0  0  1  0  0  0  0  0  0  0  0  0
    7.9123   -4.5013    0.0000 C   0  0  2  0  0  0  0  0  0  0  0  0
    7.4809   -5.2045    0.0000 C   0  0  1  0  0  0  0  0  0  0  0  0
    6.6562   -5.1825    0.0000 O   0  0  0  0  0  0  0  0  0  0  0  0
    7.9372   -5.8586    0.0000 O   0  0  0  0  0  0  0  0  0  0  0  0
   10.1291   -6.2612    0.0000 C   0  0  2  0  0  0  0  0  0  0  0  0
    9.4153   -5.8475    0.0000 C   0  0  2  0  0  0  0  0  0  0  0  0
    8.7002   -6.2588    0.0000 C   0  0  1  0  0  0  0  0  0  0  0  0
    8.6988   -7.0838    0.0000 C   0  0  2  0  0  0  0  0  0  0  0  0
    9.4126   -7.4975    0.0000 C   0  0  1  0  0  0  0  0  0  0  0  0
   10.1278   -7.0862    0.0000 O   0  0  0  0  0  0  0  0  0  0  0  0
    7.9837   -7.4952    0.0000 O   0  0  0  0  0  0  0  0  0  0  0  0
    4.6881   -6.0559    0.0000 O   0  0  0  0  0  0  0  0  0  0  0  0
    5.5131   -6.0585    0.0000 C   0  0  0  0  0  0  0  0  0  0  0  0
    4.6837   -7.4848    0.0000 O   0  0  0  0  0  0  0  0  0  0  0  0
    5.5042   -8.9163    0.0000 O   0  0  0  0  0  0  0  0  0  0  0  0
    7.1542   -8.9215    0.0000 O   0  0  0  0  0  0  0  0  0  0  0  0
    5.9234   -6.7742    0.0000 C   0  0  2  0  0  0  0  0  0  0  0  0
    5.5087   -7.4874    0.0000 C   0  0  2  0  0  0  0  0  0  0  0  0
    5.9189   -8.2032    0.0000 C   0  0  1  0  0  0  0  0  0  0  0  0
    6.7439   -8.2058    0.0000 C   0  0  2  0  0  0  0  0  0  0  0  0
    7.1587   -7.4926    0.0000 C   0  0  1  0  0  0  0  0  0  0  0  0
    6.7484   -6.7768    0.0000 O   0  0  0  0  0  0  0  0  0  0  0  0
   15.8388   -7.9147    0.0000 H   0  0  0  0  0  0  0  0  0  0  0  0
   14.4098  -10.3897    0.0000 H   0  0  0  0  0  0  0  0  0  0  0  0
   15.1243   -9.1522    0.0000 H   0  0  0  0  0  0  0  0  0  0  0  0
   16.5532   -9.1522    0.0000 H   0  0  0  0  0  0  0  0  0  0  0  0
   16.9253   -6.5328    0.0000 H   0  0  0  0  0  0  0  0  0  0  0  0
   18.3077   -8.5822    0.0000 H   0  0  0  0  0  0  0  0  0  0  0  0
 72 62  1  1  0  0  0
 59 62  1  6  0  0  0
 60 42  1  1  0  0  0
 39 42  1  1  0  0  0
 38 31  1  1  0  0  0
 37 32  1  6  0  0  0
 40 34  1  1  0  0  0
 34 33  1  0  0  0  0
 36 35  1  1  0  0  0
 41 36  1  0  0  0  0
 37 36  1  0  0  0  0
 38 37  1  0  0  0  0
 39 38  1  0  0  0  0
 40 39  1  0  0  0  0
 41 40  1  0  0  0  0
 57 43  1  6  0  0  0
 56 45  1  1  0  0  0
 45 44  1  0  0  0  0
 58 55  1  1  0  0  0
 53 55  1  6  0  0  0
 52 46  1  1  0  0  0
 51 47  1  6  0  0  0
 50 48  1  1  0  0  0
 54 49  1  0  0  0  0
 50 49  1  0  0  0  0
 51 50  1  0  0  0  0
 52 51  1  0  0  0  0
 53 52  1  0  0  0  0
 54 53  1  0  0  0  0
 61 56  1  0  0  0  0
 57 56  1  0  0  0  0
 58 57  1  0  0  0  0
 59 58  1  0  0  0  0
 60 59  1  0  0  0  0
 61 60  1  0  0  0  0
 68 64  1  1  0  0  0
 64 63  1  0  0  0  0
 69 65  1  6  0  0  0
 70 66  1  1  0  0  0
 71 67  1  6  0  0  0
 73 68  1  0  0  0  0
 69 68  1  0  0  0  0
 70 69  1  0  0  0  0
 71 70  1  0  0  0  0
 72 71  1  0  0  0  0
 73 72  1  0  0  0  0
  1  2  1  0  0  0  0
  2  3  1  0  0  0  0
  3  4  1  0  0  0  0
  4  5  1  0  0  0  0
  5  6  1  0  0  0  0
  6  7  1  0  0  0  0
  7  8  1  0  0  0  0
  8  9  1  0  0  0  0
  9 10  1  0  0  0  0
 10 11  1  0  0  0  0
 11 12  1  0  0  0  0
 12 13  1  0  0  0  0
 13 14  1  0  0  0  0
 14 15  1  0  0  0  0
 15 16  1  0  0  0  0
 16 17  1  0  0  0  0
 17 18  1  0  0  0  0
 18 19  1  0  0  0  0
 19 20  1  0  0  0  0
  1 20  1  0  0  0  0
  1 12  1  0  0  0  0
 13 18  1  0  0  0  0
  2  9  1  0  0  0  0
  4  8  1  0  0  0  0
 22 23  1  0  0  0  0
 23 24  1  0  0  0  0
 24 25  1  0  0  0  0
 21 25  1  0  0  0  0
  6 21  1  6  0  0  0
  6 22  1  1  0  0  0
 13 26  1  1  0  0  0
  9 27  1  1  0  0  0
  7 28  1  6  0  0  0
 24 29  1  6  0  0  0
 19 30  1  1  0  0  0
 16 35  1  1  0  0  0
  1 74  1  1  0  0  0
 18 75  1  6  0  0  0
 12 76  1  6  0  0  0
  2 77  1  6  0  0  0
  8 78  1  6  0  0  0
  4 79  1  6  0  0  0
M  END
>  <cdx:fragmentId>
83

$$$$
