99575.cdx
  Mrv1902 05222410182D          

 19 21  0  0  0  0            999 V2000
    7.6154   -7.0622    0.0000 C   0  0  0  0  0  0  0  0  0  0  0  0
    6.8289   -6.8133    0.0000 C   0  0  0  0  0  0  0  0  0  0  0  0
    6.1439   -7.2732    0.0000 C   0  0  0  0  0  0  0  0  0  0  0  0
    6.0763   -8.0954    0.0000 C   0  0  0  0  0  0  0  0  0  0  0  0
    6.6771   -8.6609    0.0000 C   0  0  0  0  0  0  0  0  0  0  0  0
    7.4937   -8.5438    0.0000 C   0  0  0  0  0  0  0  0  0  0  0  0
    7.9113   -7.8323    0.0000 C   0  0  0  0  0  0  0  0  0  0  0  0
    8.7336   -7.8998    0.0000 C   0  0  0  0  0  0  0  0  0  0  0  0
    8.0952   -6.3910    0.0000 C   0  0  0  0  0  0  0  0  0  0  0  0
    7.6050   -5.7273    0.0000 C   0  0  0  0  0  0  0  0  0  0  0  0
    6.8224   -5.9884    0.0000 C   0  0  0  0  0  0  0  0  0  0  0  0
    5.3828   -6.9549    0.0000 O   0  0  0  0  0  0  0  0  0  0  0  0
    4.8448   -7.5803    0.0000 C   0  0  0  0  0  0  0  0  0  0  0  0
    5.2735   -8.2852    0.0000 C   0  0  0  0  0  0  0  0  0  0  0  0
    6.1512   -5.5087    0.0000 C   0  0  0  0  0  0  0  0  0  0  0  0
    8.9201   -6.3845    0.0000 O   0  0  0  0  0  0  0  0  0  0  0  0
    9.3326   -7.0990    0.0000 C   0  0  0  0  0  0  0  0  0  0  0  0
    6.4283   -9.4475    0.0000 O   0  0  0  0  0  0  0  0  0  0  0  0
    4.9552   -9.0464    0.0000 C   0  0  0  0  0  0  0  0  0  0  0  0
  1  2  1  0  0  0  0
  2  3  1  0  0  0  0
  3  4  2  0  0  0  0
  4  5  1  0  0  0  0
  5  6  1  0  0  0  0
  6  7  2  0  0  0  0
  7  1  1  0  0  0  0
  7  8  1  0  0  0  0
  1  9  1  0  0  0  0
  9 10  1  0  0  0  0
 10 11  1  0  0  0  0
 11  2  1  0  0  0  0
  3 12  1  0  0  0  0
 12 13  1  0  0  0  0
 13 14  2  0  0  0  0
 14  4  1  0  0  0  0
 11 15  1  0  0  0  0
  9 16  1  0  0  0  0
 16 17  1  0  0  0  0
  5 18  2  0  0  0  0
 14 19  1  0  0  0  0
M  END
>  <cdx:fragmentId>
5

$$$$
