99577.cdx
  Mrv1902 05222410182D          

 45 48  0  0  0  0            999 V2000
    7.6241   -6.2858    0.0000 C   0  0  0  0  0  0  0  0  0  0  0  0
    8.3386   -5.8733    0.0000 C   0  0  0  0  0  0  0  0  0  0  0  0
    9.0531   -6.2858    0.0000 C   0  0  0  0  0  0  0  0  0  0  0  0
    9.7675   -5.8733    0.0000 C   0  0  0  0  0  0  0  0  0  0  0  0
    9.7675   -5.0483    0.0000 C   0  0  0  0  0  0  0  0  0  0  0  0
    9.0531   -4.6358    0.0000 C   0  0  0  0  0  0  0  0  0  0  0  0
    8.3386   -5.0483    0.0000 C   0  0  0  0  0  0  0  0  0  0  0  0
   10.4820   -6.2858    0.0000 O   0  0  0  0  0  0  0  0  0  0  0  0
   10.4820   -4.6358    0.0000 O   0  0  0  0  0  0  0  0  0  0  0  0
    6.9234   -8.4858    0.0000 C   0  0  0  0  0  0  0  0  0  0  0  0
    6.2089   -8.8983    0.0000 C   0  0  0  0  0  0  0  0  0  0  0  0
    5.4944   -8.4858    0.0000 C   0  0  0  0  0  0  0  0  0  0  0  0
    4.7800   -8.8983    0.0000 C   0  0  0  0  0  0  0  0  0  0  0  0
    4.7800   -9.7233    0.0000 C   0  0  0  0  0  0  0  0  0  0  0  0
    5.4944  -10.1358    0.0000 C   0  0  0  0  0  0  0  0  0  0  0  0
    6.2089   -9.7233    0.0000 C   0  0  0  0  0  0  0  0  0  0  0  0
    4.0655   -8.4858    0.0000 O   0  0  0  0  0  0  0  0  0  0  0  0
    3.3510   -8.8983    0.0000 C   0  0  0  0  0  0  0  0  0  0  0  0
    4.0655  -10.1358    0.0000 O   0  0  0  0  0  0  0  0  0  0  0  0
   13.3399   -8.8708    0.0000 O   0  0  0  0  0  0  0  0  0  0  0  0
   11.9109   -7.2208    0.0000 C   0  0  0  0  0  0  0  0  0  0  0  0
   12.6254   -7.6333    0.0000 C   0  0  0  0  0  0  0  0  0  0  0  0
   12.6254   -8.4583    0.0000 C   0  0  0  0  0  0  0  0  0  0  0  0
   11.9109   -8.8708    0.0000 C   0  0  0  0  0  0  0  0  0  0  0  0
   11.1965   -8.4583    0.0000 C   0  0  0  0  0  0  0  0  0  0  0  0
   11.1965   -7.6333    0.0000 C   0  0  0  0  0  0  0  0  0  0  0  0
   10.4820   -7.2208    0.0000 C   0  0  0  0  0  0  0  0  0  0  0  0
    9.7675   -7.6333    0.0000 C   0  0  0  0  0  0  0  0  0  0  0  0
    1.1939   -5.9833    0.0000 O   0  0  0  0  0  0  0  0  0  0  0  0
    2.6228   -7.6333    0.0000 C   0  0  0  0  0  0  0  0  0  0  0  0
    1.9083   -7.2208    0.0000 C   0  0  0  0  0  0  0  0  0  0  0  0
    1.9083   -6.3958    0.0000 C   0  0  0  0  0  0  0  0  0  0  0  0
    2.6228   -5.9833    0.0000 C   0  0  0  0  0  0  0  0  0  0  0  0
    3.3373   -6.3958    0.0000 C   0  0  0  0  0  0  0  0  0  0  0  0
    3.3373   -7.2208    0.0000 C   0  0  0  0  0  0  0  0  0  0  0  0
    4.0518   -7.6333    0.0000 C   0  0  0  0  0  0  0  0  0  0  0  0
    4.7662   -7.2208    0.0000 C   0  0  0  0  0  0  0  0  0  0  0  0
    5.4807   -7.6333    0.0000 N   0  0  0  0  0  0  0  0  0  0  0  0
    6.1952   -6.3958    0.0000 O   0  0  0  0  0  0  0  0  0  0  0  0
    9.0531   -7.2208    0.0000 N   0  0  0  0  0  0  0  0  0  0  0  0
    8.3386   -8.4583    0.0000 O   0  0  0  0  0  0  0  0  0  0  0  0
    6.1952   -7.2208    0.0000 C   0  0  0  0  0  0  0  0  0  0  0  0
    6.9096   -7.6333    0.0000 C   0  0  0  0  0  0  0  0  0  0  0  0
    7.6241   -7.2208    0.0000 C   0  0  0  0  0  0  0  0  0  0  0  0
    8.3386   -7.6333    0.0000 C   0  0  0  0  0  0  0  0  0  0  0  0
 44  1  2  0  0  0  0
 43 10  2  0  0  0  0
 40 28  1  0  0  0  0
 27 26  1  0  0  0  0
 23 20  1  0  0  0  0
 26 21  2  0  0  0  0
 22 21  1  0  0  0  0
 23 22  2  0  0  0  0
 24 23  1  0  0  0  0
 25 24  2  0  0  0  0
 26 25  1  0  0  0  0
 28 27  1  0  0  0  0
 38 37  1  0  0  0  0
 36 35  1  0  0  0  0
 32 29  1  0  0  0  0
 35 30  2  0  0  0  0
 31 30  1  0  0  0  0
 32 31  2  0  0  0  0
 33 32  1  0  0  0  0
 34 33  2  0  0  0  0
 35 34  1  0  0  0  0
 37 36  1  0  0  0  0
 42 38  1  0  0  0  0
 42 39  2  0  0  0  0
 45 40  1  0  0  0  0
 45 41  2  0  0  0  0
 43 42  1  0  0  0  0
 44 43  1  0  0  0  0
 45 44  1  0  0  0  0
  2  3  1  0  0  0  0
  3  4  2  0  0  0  0
  4  5  1  0  0  0  0
  5  6  2  0  0  0  0
  6  7  1  0  0  0  0
  2  7  2  0  0  0  0
  4  8  1  0  0  0  0
  5  9  1  0  0  0  0
  1  2  1  0  0  0  0
 11 12  1  0  0  0  0
 12 13  2  0  0  0  0
 13 14  1  0  0  0  0
 14 15  2  0  0  0  0
 15 16  1  0  0  0  0
 11 16  2  0  0  0  0
 17 18  1  0  0  0  0
 13 17  1  0  0  0  0
 14 19  1  0  0  0  0
 10 11  1  0  0  0  0
M  END
>  <cdx:fragmentId>
1340

$$$$
