99585.cdx
  Mrv1902 05222410272D          

 40 42  0  0  0  0            999 V2000
    5.6505  -13.7632    0.0000 C   0  0  0  0  0  0  0  0  0  0  0  0
    5.6570  -12.9382    0.0000 C   0  0  0  0  0  0  0  0  0  0  0  0
    9.0354   -8.8374    0.0000 C   0  0  0  0  0  0  0  0  0  0  0  0
    9.3372   -8.0696    0.0000 O   0  0  0  0  0  0  0  0  0  0  0  0
    3.5236  -11.6836    0.0000 O   0  0  0  0  0  0  0  0  0  0  0  0
    4.2479  -10.4519    0.0000 O   0  0  0  0  0  0  0  0  0  0  0  0
    4.2413  -11.2768    0.0000 C   0  0  0  0  0  0  0  0  0  0  0  0
    4.9525  -11.6950    0.0000 C   0  0  0  0  0  0  0  0  0  0  0  0
    5.6702  -11.2883    0.0000 C   0  0  0  0  0  0  0  0  0  0  0  0
    8.5551   -9.6614    0.0000 C   0  0  0  0  0  0  0  0  0  0  0  0
    6.3880  -10.8815    0.0000 C   0  0  0  0  0  0  0  0  0  0  0  0
    8.5076  -12.1359    0.0000 C   0  0  0  0  0  0  0  0  0  0  0  0
    4.9459  -12.5200    0.0000 C   0  0  0  0  0  0  0  0  0  0  0  0
    9.3106  -11.5723    0.0000 C   0  0  0  0  0  0  0  0  0  0  0  0
    9.8008  -10.9088    0.0000 C   0  0  2  0  0  0  0  0  0  0  0  0
    9.3213  -10.2375    0.0000 C   0  0  1  0  0  0  0  0  0  0  0  0
    7.8103  -11.7179    0.0000 C   0  0  0  0  0  0  0  0  0  0  0  0
    7.8037  -12.5429    0.0000 C   0  0  0  0  0  0  0  0  0  0  0  0
    7.0859  -12.9496    0.0000 C   0  0  0  0  0  0  0  0  0  0  0  0
    6.3748  -12.5314    0.0000 C   0  0  2  0  0  0  0  0  0  0  0  0
    6.3814  -11.7065    0.0000 C   0  0  1  0  0  0  0  0  0  0  0  0
    7.0991  -11.2997    0.0000 C   0  0  0  0  0  0  0  0  0  0  0  0
    7.1057  -10.4747    0.0000 C   0  0  0  0  0  0  0  0  0  0  0  0
    7.8235  -10.0679    0.0000 C   0  0  0  0  0  0  0  0  0  0  0  0
    8.5346  -10.4861    0.0000 C   0  0  2  0  0  0  0  0  0  0  0  0
    8.5280  -11.3111    0.0000 C   0  0  2  0  0  0  0  0  0  0  0  0
    8.2195   -8.9600    0.0000 O   0  0  0  0  0  0  0  0  0  0  0  0
   10.3810   -9.2478    0.0000 C   0  0  0  0  0  0  0  0  0  0  0  0
    9.5825   -9.4549    0.0000 C   0  0  1  0  0  0  0  0  0  0  0  0
   10.1182  -10.0240    0.0000 H   0  0  0  0  0  0  0  0  0  0  0  0
   10.6009   -8.4526    0.0000 C   0  0  0  0  0  0  0  0  0  0  0  0
   11.3995   -8.2455    0.0000 C   0  0  0  0  0  0  0  0  0  0  0  0
   11.6194   -7.4503    0.0000 C   0  0  0  0  0  0  0  0  0  0  0  0
   10.8225   -7.2368    0.0000 C   0  0  0  0  0  0  0  0  0  0  0  0
   12.4163   -7.6638    0.0000 C   0  0  0  0  0  0  0  0  0  0  0  0
   10.6258  -10.9154    0.0000 O   0  0  0  0  0  0  0  0  0  0  0  0
    6.3682  -13.3564    0.0000 H   0  0  0  0  0  0  0  0  0  0  0  0
   11.9782   -8.8335    0.0000 C   0  0  0  0  0  0  0  0  0  0  0  0
   11.8393   -6.6552    0.0000 O   0  0  0  0  0  0  0  0  0  0  0  0
    2.8124  -11.2654    0.0000 C   0  0  0  0  0  0  0  0  0  0  0  0
 29 16  1  0  0  0  0
 21  9  1  0  0  0  0
  8  7  1  0  0  0  0
  7  5  1  0  0  0  0
  7  6  2  0  0  0  0
  9  8  1  0  0  0  0
 25 10  1  1  0  0  0
 21 11  1  1  0  0  0
 26 12  1  6  0  0  0
 20  2  1  1  0  0  0
 16 25  1  0  0  0  0
 14 26  1  0  0  0  0
 15 14  1  0  0  0  0
 16 15  1  0  0  0  0
 22 17  1  0  0  0  0
 26 17  1  0  0  0  0
 18 17  2  0  0  0  0
 19 18  1  0  0  0  0
 20 19  1  0  0  0  0
 21 20  1  0  0  0  0
 22 21  1  0  0  0  0
 23 22  2  0  0  0  0
 24 23  1  0  0  0  0
 25 24  1  0  0  0  0
 26 25  1  0  0  0  0
 29 28  1  6  0  0  0
  3 29  1  0  0  0  0
  1  2  2  0  0  0  0
  2 13  1  0  0  0  0
  3  4  2  0  0  0  0
  3 27  1  0  0  0  0
 16 30  1  6  0  0  0
 28 31  1  0  0  0  0
 31 32  1  0  0  0  0
 32 33  1  0  0  0  0
 33 34  1  0  0  0  0
 33 35  1  0  0  0  0
 15 36  1  6  0  0  0
 20 37  1  6  0  0  0
 32 38  2  0  0  0  0
 33 39  1  0  0  0  0
  5 40  1  0  0  0  0
M  END
>  <cdx:fragmentId>
123564

$$$$
