99580.cdx
  Mrv1902 05222410272D          

 15 17  0  0  0  0            999 V2000
    5.0512   -8.0850    0.0000 C   0  0  0  0  0  0  0  0  0  0  0  0
    5.0512   -8.9100    0.0000 C   0  0  0  0  0  0  0  0  0  0  0  0
    5.7656   -9.3225    0.0000 C   0  0  0  0  0  0  0  0  0  0  0  0
    6.4801   -8.9100    0.0000 C   0  0  0  0  0  0  0  0  0  0  0  0
    6.4801   -8.0850    0.0000 C   0  0  0  0  0  0  0  0  0  0  0  0
    5.7656   -7.6725    0.0000 C   0  0  0  0  0  0  0  0  0  0  0  0
    7.2647   -9.1649    0.0000 N   0  0  0  0  0  0  0  0  0  0  0  0
    7.7497   -8.4975    0.0000 C   0  0  0  0  0  0  0  0  0  0  0  0
    7.2647   -7.8301    0.0000 C   0  0  0  0  0  0  0  0  0  0  0  0
    8.5701   -8.4113    0.0000 C   0  0  0  0  0  0  0  0  0  0  0  0
    8.9057   -7.6576    0.0000 N   0  0  0  0  0  0  0  0  0  0  0  0
    8.4208   -6.9901    0.0000 C   0  0  0  0  0  0  0  0  0  0  0  0
    7.6003   -7.0764    0.0000 C   0  0  0  0  0  0  0  0  0  0  0  0
    4.3367   -7.6725    0.0000 O   0  0  0  0  0  0  0  0  0  0  0  0
    9.0551   -9.0787    0.0000 C   0  0  0  0  0  0  0  0  0  0  0  0
  1  2  2  0  0  0  0
  2  3  1  0  0  0  0
  3  4  2  0  0  0  0
  4  5  1  0  0  0  0
  5  6  2  0  0  0  0
  6  1  1  0  0  0  0
  4  7  1  0  0  0  0
  7  8  1  0  0  0  0
  8  9  2  0  0  0  0
  9  5  1  0  0  0  0
  8 10  1  0  0  0  0
 10 11  1  0  0  0  0
 11 12  1  0  0  0  0
 12 13  2  0  0  0  0
 13  9  1  0  0  0  0
  1 14  1  0  0  0  0
 10 15  1  0  0  0  0
M  END
>  <cdx:fragmentId>
5

$$$$
