99586.cdx
  Mrv1902 05222410282D          

 51 55  0  0  0  0            999 V2000
    2.9062  -10.1750    0.0000 O   0  0  0  0  0  0  0  0  0  0  0  0
    3.6206  -11.4125    0.0000 O   0  0  0  0  0  0  0  0  0  0  0  0
    4.3351  -11.0000    0.0000 C   0  0  2  0  0  0  0  0  0  0  0  0
    4.3351  -10.1750    0.0000 C   0  0  1  0  0  0  0  0  0  0  0  0
    3.6206   -9.7625    0.0000 C   0  0  0  0  0  0  0  0  0  0  0  0
    5.0496  -11.4125    0.0000 C   0  0  1  0  0  0  0  0  0  0  0  0
    5.7641  -11.0000    0.0000 C   0  0  2  0  0  0  0  0  0  0  0  0
    5.7641  -10.1750    0.0000 C   0  0  1  0  0  0  0  0  0  0  0  0
    5.0496   -9.7625    0.0000 O   0  0  0  0  0  0  0  0  0  0  0  0
    6.4785   -9.7625    0.0000 O   0  0  0  0  0  0  0  0  0  0  0  0
    6.4785   -8.9375    0.0000 C   0  0  1  0  0  0  0  0  0  0  0  0
    5.7641   -8.5250    0.0000 C   0  0  0  0  0  0  0  0  0  0  0  0
    7.1930   -8.5250    0.0000 C   0  0  1  0  0  0  0  0  0  0  0  0
    7.1930   -7.7000    0.0000 C   0  0  0  0  0  0  0  0  0  0  0  0
    5.7641   -7.7000    0.0000 C   0  0  0  0  0  0  0  0  0  0  0  0
    7.9075   -8.9375    0.0000 C   0  0  0  0  0  0  0  0  0  0  0  0
    8.6219   -8.5250    0.0000 C   0  0  0  0  0  0  0  0  0  0  0  0
    8.6219   -7.7000    0.0000 C   0  0  1  0  0  0  0  0  0  0  0  0
    7.9075   -7.2875    0.0000 C   0  0  1  0  0  0  0  0  0  0  0  0
    9.3364   -7.2875    0.0000 C   0  0  2  0  0  0  0  0  0  0  0  0
    9.3364   -6.4625    0.0000 C   0  0  1  0  0  0  0  0  0  0  0  0
    8.6219   -6.0500    0.0000 C   0  0  0  0  0  0  0  0  0  0  0  0
    7.9075   -6.4625    0.0000 C   0  0  0  0  0  0  0  0  0  0  0  0
   10.0509   -7.7000    0.0000 C   0  0  1  0  0  0  0  0  0  0  0  0
   10.7654   -7.2875    0.0000 C   0  0  0  0  0  0  0  0  0  0  0  0
   10.0509   -6.0500    0.0000 C   0  0  0  0  0  0  0  0  0  0  0  0
   10.0509   -8.5250    0.0000 O   0  0  0  0  0  0  0  0  0  0  0  0
   10.4548   -9.2444    0.0000 C   0  0  0  0  0  0  0  0  0  0  0  0
   11.4798   -7.7000    0.0000 C   0  0  0  0  0  0  0  0  0  0  0  0
    4.9794   -7.4451    0.0000 O   0  0  0  0  0  0  0  0  0  0  0  0
    4.4945   -8.1125    0.0000 C   0  0  0  0  0  0  0  0  0  0  0  0
    4.9794   -8.7799    0.0000 C   0  0  0  0  0  0  0  0  0  0  0  0
   11.2797   -9.2542    0.0000 O   0  0  0  0  0  0  0  0  0  0  0  0
   10.0338   -9.9538    0.0000 C   0  0  0  0  0  0  0  0  0  0  0  0
   12.1943   -7.2875    0.0000 O   0  0  0  0  0  0  0  0  0  0  0  0
   11.4798   -8.5250    0.0000 O   0  0  0  0  0  0  0  0  0  0  0  0
   10.7654   -6.4625    0.0000 C   0  0  0  0  0  0  0  0  0  0  0  0
   10.0509   -5.2250    0.0000 C   0  0  0  0  0  0  0  0  0  0  0  0
   10.7654   -5.6375    0.0000 O   0  0  0  0  0  0  0  0  0  0  0  0
    7.1930   -6.0500    0.0000 O   0  0  0  0  0  0  0  0  0  0  0  0
    6.6096   -7.1166    0.0000 C   0  0  2  0  0  0  0  0  0  0  0  0
    6.3961   -7.9135    0.0000 O   0  0  0  0  0  0  0  0  0  0  0  0
    6.3961   -6.3197    0.0000 C   0  0  0  0  0  0  0  0  0  0  0  0
    6.9795   -5.7364    0.0000 O   0  0  0  0  0  0  0  0  0  0  0  0
    5.5992   -6.1062    0.0000 O   0  0  0  0  0  0  0  0  0  0  0  0
    5.0496  -12.2375    0.0000 O   0  0  0  0  0  0  0  0  0  0  0  0
    7.1930   -6.8750    0.0000 C   0  0  0  0  0  0  0  0  0  0  0  0
   10.0509   -6.8750    0.0000 C   0  0  0  0  0  0  0  0  0  0  0  0
    6.4785  -11.4125    0.0000 O   0  0  0  0  0  0  0  0  0  0  0  0
    7.1930   -9.3500    0.0000 C   0  0  0  0  0  0  0  0  0  0  0  0
    9.3364   -8.1125    0.0000 H   0  0  0  0  0  0  0  0  0  0  0  0
  3  2  1  6  0  0  0
  3  4  1  0  0  0  0
  4  5  1  1  0  0  0
  5  1  1  0  0  0  0
  3  6  1  0  0  0  0
  6  7  1  0  0  0  0
  7  8  1  0  0  0  0
  8  9  1  0  0  0  0
  9  4  1  0  0  0  0
  8 10  1  1  0  0  0
 11 10  1  1  0  0  0
 11 12  1  0  0  0  0
 11 13  1  0  0  0  0
 13 14  1  0  0  0  0
 15 12  2  0  0  0  0
 13 16  1  0  0  0  0
 16 17  1  0  0  0  0
 17 18  1  0  0  0  0
 18 19  1  0  0  0  0
 19 14  1  0  0  0  0
 18 20  1  0  0  0  0
 20 21  1  0  0  0  0
 21 22  1  1  0  0  0
 22 23  1  0  0  0  0
 23 19  1  0  0  0  0
 20 24  1  0  0  0  0
 24 25  1  0  0  0  0
 26 21  1  0  0  0  0
 24 27  1  1  0  0  0
 27 28  1  0  0  0  0
 29 25  1  0  0  0  0
 15 30  1  0  0  0  0
 30 31  1  0  0  0  0
 31 32  2  0  0  0  0
 32 12  1  0  0  0  0
 28 33  2  0  0  0  0
 28 34  1  0  0  0  0
 29 35  1  0  0  0  0
 29 36  2  0  0  0  0
 26 37  1  0  0  0  0
 26 38  1  0  0  0  0
 26 39  1  0  0  0  0
 23 40  2  0  0  0  0
 14 41  1  0  0  0  0
 41 42  1  0  0  0  0
 42 14  1  0  0  0  0
 41 43  1  6  0  0  0
 43 44  1  0  0  0  0
 43 45  2  0  0  0  0
  6 46  1  1  0  0  0
 19 47  1  1  0  0  0
 20 48  1  1  0  0  0
  7 49  1  6  0  0  0
 13 50  1  6  0  0  0
 18 51  1  6  0  0  0
M  END
>  <cdx:fragmentId>
5

$$$$
