99587.cdx
  Mrv1902 05222410282D          

 63 69  0  0  0  0            999 V2000
    7.3337   -3.8225    0.0000 C   0  0  0  0  0  0  0  0  0  0  0  0
    7.3337   -4.6475    0.0000 C   0  0  0  0  0  0  0  0  0  0  0  0
    8.0481   -5.0600    0.0000 C   0  0  0  0  0  0  0  0  0  0  0  0
    8.7626   -4.6475    0.0000 C   0  0  0  0  0  0  0  0  0  0  0  0
    8.7626   -3.8225    0.0000 C   0  0  0  0  0  0  0  0  0  0  0  0
    8.0481   -3.4100    0.0000 C   0  0  0  0  0  0  0  0  0  0  0  0
    9.4771   -5.0600    0.0000 C   0  0  0  0  0  0  0  0  0  0  0  0
   10.1916   -4.6475    0.0000 C   0  0  0  0  0  0  0  0  0  0  0  0
   10.1916   -3.8225    0.0000 C   0  0  0  0  0  0  0  0  0  0  0  0
    9.4771   -3.4100    0.0000 O   0  0  0  0  0  0  0  0  0  0  0  0
   11.6205   -3.8225    0.0000 C   0  0  0  0  0  0  0  0  0  0  0  0
   10.9060   -3.4100    0.0000 C   0  0  0  0  0  0  0  0  0  0  0  0
   12.3350   -3.4100    0.0000 C   0  0  0  0  0  0  0  0  0  0  0  0
   12.3350   -2.5850    0.0000 C   0  0  0  0  0  0  0  0  0  0  0  0
   11.6205   -2.1725    0.0000 C   0  0  0  0  0  0  0  0  0  0  0  0
   10.9060   -2.5850    0.0000 C   0  0  0  0  0  0  0  0  0  0  0  0
   13.0494   -2.1725    0.0000 O   0  0  0  0  0  0  0  0  0  0  0  0
    9.4771   -5.8850    0.0000 O   0  0  0  0  0  0  0  0  0  0  0  0
    6.6192   -3.4100    0.0000 O   0  0  0  0  0  0  0  0  0  0  0  0
    8.0481   -5.8850    0.0000 O   0  0  0  0  0  0  0  0  0  0  0  0
    5.9047   -3.8225    0.0000 C   0  0  0  0  0  0  0  0  0  0  0  0
    5.1884   -5.0822    0.0000 C   0  0  2  0  0  0  0  0  0  0  0  0
    5.1884   -5.9072    0.0000 C   0  0  2  0  0  0  0  0  0  0  0  0
    5.9029   -6.3197    0.0000 C   0  0  1  0  0  0  0  0  0  0  0  0
    6.6174   -5.9072    0.0000 C   0  0  2  0  0  0  0  0  0  0  0  0
    6.6174   -5.0822    0.0000 C   0  0  1  0  0  0  0  0  0  0  0  0
    5.9029   -4.6697    0.0000 O   0  0  0  0  0  0  0  0  0  0  0  0
    4.4739   -4.6697    0.0000 C   0  0  0  0  0  0  0  0  0  0  0  0
    5.9029   -7.1447    0.0000 O   0  0  0  0  0  0  0  0  0  0  0  0
    4.4739   -6.3197    0.0000 O   0  0  0  0  0  0  0  0  0  0  0  0
    7.3318   -6.3197    0.0000 O   0  0  0  0  0  0  0  0  0  0  0  0
    3.7595   -5.0822    0.0000 O   0  0  0  0  0  0  0  0  0  0  0  0
    6.5992   -8.3804    0.0000 C   0  0  2  0  0  0  0  0  0  0  0  0
    7.3115   -8.7965    0.0000 C   0  0  2  0  0  0  0  0  0  0  0  0
    8.0281   -8.3876    0.0000 C   0  0  1  0  0  0  0  0  0  0  0  0
    8.0323   -7.5626    0.0000 C   0  0  2  0  0  0  0  0  0  0  0  0
    7.3199   -7.1465    0.0000 C   0  0  1  0  0  0  0  0  0  0  0  0
    6.6034   -7.5554    0.0000 O   0  0  0  0  0  0  0  0  0  0  0  0
    5.8826   -8.7892    0.0000 C   0  0  0  0  0  0  0  0  0  0  0  0
    8.7405   -8.8038    0.0000 O   0  0  0  0  0  0  0  0  0  0  0  0
    7.3073   -9.6215    0.0000 O   0  0  0  0  0  0  0  0  0  0  0  0
    8.7489   -7.1538    0.0000 O   0  0  0  0  0  0  0  0  0  0  0  0
    5.8784   -9.6142    0.0000 O   0  0  0  0  0  0  0  0  0  0  0  0
    3.7409  -10.8338    0.0000 C   0  0  0  0  0  0  0  0  0  0  0  0
    3.0254  -11.2445    0.0000 C   0  0  0  0  0  0  0  0  0  0  0  0
    5.1699  -10.8374    0.0000 O   0  0  0  0  0  0  0  0  0  0  0  0
    5.1719  -10.0124    0.0000 C   0  0  0  0  0  0  0  0  0  0  0  0
    4.4585   -9.5981    0.0000 C   0  0  0  0  0  0  0  0  0  0  0  0
    3.7430  -10.0088    0.0000 C   0  0  0  0  0  0  0  0  0  0  0  0
    3.0296   -9.5945    0.0000 C   0  0  0  0  0  0  0  0  0  0  0  0
    3.0233  -12.0695    0.0000 C   0  0  2  0  0  0  0  0  0  0  0  0
    3.7378  -11.6570    0.0000 O   0  0  0  0  0  0  0  0  0  0  0  0
    6.6174   -4.2572    0.0000 H   0  0  0  0  0  0  0  0  0  0  0  0
    2.3114  -12.4863    0.0000 C   0  0  2  0  0  0  0  0  0  0  0  0
    2.3195  -13.3131    0.0000 C   0  0  0  0  0  0  0  0  0  0  0  0
    3.0375  -13.7194    0.0000 C   0  0  1  0  0  0  0  0  0  0  0  0
    3.7505  -13.3007    0.0000 C   0  0  0  0  0  0  0  0  0  0  0  0
    3.7413  -12.4758    0.0000 C   0  0  1  0  0  0  0  0  0  0  0  0
    4.4517  -12.0563    0.0000 C   0  0  0  0  0  0  0  0  0  0  0  0
    1.5936  -12.0795    0.0000 C   0  0  0  0  0  0  0  0  0  0  0  0
    3.0441  -14.5444    0.0000 O   0  0  0  0  0  0  0  0  0  0  0  0
    2.8875  -12.6775    0.0000 C   0  0  0  0  0  0  0  0  0  0  0  0
    3.2175  -13.1175    0.0000 O   0  0  0  0  0  0  0  0  0  0  0  0
  1  2  2  0  0  0  0
  2  3  1  0  0  0  0
  3  4  2  0  0  0  0
  4  5  1  0  0  0  0
  5  6  2  0  0  0  0
  6  1  1  0  0  0  0
  4  7  1  0  0  0  0
  7  8  1  0  0  0  0
  8  9  2  0  0  0  0
  9 10  1  0  0  0  0
 10  5  1  0  0  0  0
 11 12  2  0  0  0  0
 12  9  1  0  0  0  0
 11 13  1  0  0  0  0
 13 14  2  0  0  0  0
 14 15  1  0  0  0  0
 15 16  2  0  0  0  0
 16 12  1  0  0  0  0
 14 17  1  0  0  0  0
  7 18  2  0  0  0  0
  1 19  1  0  0  0  0
  3 20  1  0  0  0  0
 19 21  1  0  0  0  0
 22 23  1  0  0  0  0
 23 24  1  0  0  0  0
 24 25  1  0  0  0  0
 25 26  1  0  0  0  0
 26 27  1  0  0  0  0
 27 22  1  0  0  0  0
 22 28  1  1  0  0  0
 24 29  1  1  0  0  0
 23 30  1  6  0  0  0
 25 31  1  6  0  0  0
 28 32  1  0  0  0  0
 33 34  1  0  0  0  0
 34 35  1  0  0  0  0
 35 36  1  0  0  0  0
 36 37  1  0  0  0  0
 37 38  1  0  0  0  0
 38 33  1  0  0  0  0
 33 39  1  1  0  0  0
 35 40  1  1  0  0  0
 34 41  1  6  0  0  0
 36 42  1  6  0  0  0
 39 43  1  0  0  0  0
 37 31  1  1  0  0  0
 44 45  2  0  0  0  0
 46 47  2  0  0  0  0
 47 48  1  0  0  0  0
 48 49  2  0  0  0  0
 49 44  1  0  0  0  0
 49 50  1  0  0  0  0
 26  2  1  0  0  0  0
 47 43  1  0  0  0  0
 45 51  1  0  0  0  0
 51 52  1  6  0  0  0
 26 53  1  6  0  0  0
 51 54  1  0  0  0  0
 54 55  1  0  0  0  0
 55 56  1  0  0  0  0
 56 57  1  0  0  0  0
 57 58  1  0  0  0  0
 58 51  1  0  0  0  0
 58 59  1  1  0  0  0
 54 60  1  1  0  0  0
 56 61  1  1  0  0  0
 54 62  1  6  0  0  0
 58 63  1  6  0  0  0
 62 63  1  0  0  0  0
M  END
>  <cdx:fragmentId>
336

$$$$
