9958.cdx
  Mrv1902 05222410182D          

  9  9  0  0  0  0            999 V2000
    4.9540   -4.3596    0.0000 C   0  0  0  0  0  0  0  0  0  0  0  0
    4.9540   -5.1846    0.0000 C   0  0  0  0  0  0  0  0  0  0  0  0
    4.2395   -5.5971    0.0000 C   0  0  0  0  0  0  0  0  0  0  0  0
    3.5250   -5.1846    0.0000 C   0  0  0  0  0  0  0  0  0  0  0  0
    3.5250   -4.3596    0.0000 C   0  0  0  0  0  0  0  0  0  0  0  0
    4.2395   -3.9471    0.0000 C   0  0  0  0  0  0  0  0  0  0  0  0
    5.6685   -3.9471    0.0000 O   0  0  0  0  0  0  0  0  0  0  0  0
    5.6685   -5.5971    0.0000 O   0  0  0  0  0  0  0  0  0  0  0  0
    2.8106   -5.5971    0.0000 C   0  0  0  0  0  0  0  0  0  0  0  0
  1  2  1  0  0  0  0
  2  3  2  0  0  0  0
  3  4  1  0  0  0  0
  4  5  2  0  0  0  0
  5  6  1  0  0  0  0
  1  6  2  0  0  0  0
  1  7  1  0  0  0  0
  2  8  1  0  0  0  0
  4  9  1  0  0  0  0
M  END
>  <cdx:groupId>
29

>  <cdx:fragmentId>
5

$$$$
