99582.cdx
  Mrv1902 05222410262D          

 50 55  0  0  0  0            999 V2000
    5.9999   -8.9925    0.0000 C   0  0  0  0  0  0  0  0  0  0  0  0
    5.9999   -9.8175    0.0000 C   0  0  1  0  0  0  0  0  0  0  0  0
    6.7144  -10.2300    0.0000 C   0  0  0  0  0  0  0  0  0  0  0  0
    7.4289   -9.8175    0.0000 C   0  0  1  0  0  0  0  0  0  0  0  0
    7.4289   -8.9925    0.0000 C   0  0  2  0  0  0  0  0  0  0  0  0
    6.7144   -8.5800    0.0000 C   0  0  0  0  0  0  0  0  0  0  0  0
    8.1433  -10.2300    0.0000 C   0  0  0  0  0  0  0  0  0  0  0  0
    8.8578   -9.8175    0.0000 C   0  0  0  0  0  0  0  0  0  0  0  0
    8.8578   -8.9925    0.0000 C   0  0  2  0  0  0  0  0  0  0  0  0
    8.1433   -8.5800    0.0000 C   0  0  2  0  0  0  0  0  0  0  0  0
    9.5723   -8.5800    0.0000 C   0  0  1  0  0  0  0  0  0  0  0  0
    9.5723   -7.7550    0.0000 C   0  0  0  0  0  0  0  0  0  0  0  0
    8.8578   -7.3425    0.0000 C   0  0  0  0  0  0  0  0  0  0  0  0
    8.1433   -7.7550    0.0000 C   0  0  0  0  0  0  0  0  0  0  0  0
   10.2868   -8.9925    0.0000 C   0  0  0  0  0  0  0  0  0  0  0  0
   11.0012   -8.5800    0.0000 C   0  0  0  0  0  0  0  0  0  0  0  0
   11.0012   -7.7550    0.0000 C   0  0  2  0  0  0  0  0  0  0  0  0
   10.2868   -7.3425    0.0000 C   0  0  1  0  0  0  0  0  0  0  0  0
   11.7157   -7.3425    0.0000 C   0  0  0  0  0  0  0  0  0  0  0  0
   11.7157   -6.5175    0.0000 C   0  0  0  0  0  0  0  0  0  0  0  0
   11.0012   -6.1050    0.0000 C   0  0  0  0  0  0  0  0  0  0  0  0
   10.2868   -6.5175    0.0000 C   0  0  0  0  0  0  0  0  0  0  0  0
    6.3019  -10.9445    0.0000 C   0  0  0  0  0  0  0  0  0  0  0  0
    7.1269  -10.9445    0.0000 C   0  0  0  0  0  0  0  0  0  0  0  0
   10.5887   -5.3905    0.0000 C   0  0  0  0  0  0  0  0  0  0  0  0
   11.4137   -5.3905    0.0000 C   0  0  0  0  0  0  0  0  0  0  0  0
   11.7157   -8.1675    0.0000 C   0  0  0  0  0  0  0  0  0  0  0  0
   12.4302   -7.7550    0.0000 O   0  0  0  0  0  0  0  0  0  0  0  0
   11.7157   -8.9925    0.0000 O   0  0  0  0  0  0  0  0  0  0  0  0
    9.5723   -9.3775    0.0000 C   0  0  0  0  0  0  0  0  0  0  0  0
    8.8578   -8.1384    0.0000 C   0  0  0  0  0  0  0  0  0  0  0  0
    5.2855  -10.2300    0.0000 O   0  0  0  0  0  0  0  0  0  0  0  0
    7.4289   -8.1675    0.0000 C   0  0  0  0  0  0  0  0  0  0  0  0
    3.8455   -8.5902    0.0000 C   0  0  2  0  0  0  0  0  0  0  0  0
    3.1317   -9.0039    0.0000 C   0  0  2  0  0  0  0  0  0  0  0  0
    3.1330   -9.8289    0.0000 C   0  0  1  0  0  0  0  0  0  0  0  0
    3.8482  -10.2402    0.0000 C   0  0  2  0  0  0  0  0  0  0  0  0
    4.5620   -9.8266    0.0000 C   0  0  1  0  0  0  0  0  0  0  0  0
    4.5606   -9.0016    0.0000 O   0  0  0  0  0  0  0  0  0  0  0  0
    3.8441   -7.7652    0.0000 C   0  0  0  0  0  0  0  0  0  0  0  0
    2.4193  -10.2426    0.0000 O   0  0  0  0  0  0  0  0  0  0  0  0
    2.4165   -8.5926    0.0000 O   0  0  0  0  0  0  0  0  0  0  0  0
    3.8495  -11.0652    0.0000 O   0  0  0  0  0  0  0  0  0  0  0  0
    3.1290   -7.3539    0.0000 O   0  0  0  0  0  0  0  0  0  0  0  0
    4.5640  -11.4777    0.0000 C   0  0  0  0  0  0  0  0  0  0  0  0
    4.5640  -12.3027    0.0000 C   0  0  0  0  0  0  0  0  0  0  0  0
    5.2785  -11.0652    0.0000 O   0  0  0  0  0  0  0  0  0  0  0  0
    7.4289  -10.6425    0.0000 H   0  0  0  0  0  0  0  0  0  0  0  0
    8.1433   -9.4050    0.0000 H   0  0  0  0  0  0  0  0  0  0  0  0
    9.5723   -6.9300    0.0000 H   0  0  0  0  0  0  0  0  0  0  0  0
  1  2  1  0  0  0  0
  2  3  1  0  0  0  0
  3  4  1  0  0  0  0
  4  5  1  0  0  0  0
  5  6  1  0  0  0  0
  6  1  1  0  0  0  0
  4  7  1  0  0  0  0
  7  8  1  0  0  0  0
  8  9  1  0  0  0  0
  9 10  1  0  0  0  0
 10  5  1  0  0  0  0
  9 11  1  0  0  0  0
 11 12  1  0  0  0  0
 12 13  2  0  0  0  0
 13 14  1  0  0  0  0
 14 10  1  0  0  0  0
 11 15  1  0  0  0  0
 15 16  1  0  0  0  0
 16 17  1  0  0  0  0
 17 18  1  0  0  0  0
 18 12  1  0  0  0  0
 17 19  1  0  0  0  0
 19 20  1  0  0  0  0
 20 21  1  0  0  0  0
 21 22  1  0  0  0  0
 22 18  1  0  0  0  0
  3 23  1  0  0  0  0
  3 24  1  0  0  0  0
 21 25  1  0  0  0  0
 21 26  1  0  0  0  0
 17 27  1  1  0  0  0
 27 28  1  0  0  0  0
 27 29  2  0  0  0  0
 11 30  1  6  0  0  0
  9 31  1  1  0  0  0
  2 32  1  1  0  0  0
  5 33  1  1  0  0  0
 34 35  1  0  0  0  0
 35 36  1  0  0  0  0
 36 37  1  0  0  0  0
 37 38  1  0  0  0  0
 38 39  1  0  0  0  0
 39 34  1  0  0  0  0
 34 40  1  1  0  0  0
 36 41  1  1  0  0  0
 35 42  1  6  0  0  0
 37 43  1  6  0  0  0
 40 44  1  0  0  0  0
 38 32  1  1  0  0  0
 43 45  1  0  0  0  0
 45 46  1  0  0  0  0
 45 47  2  0  0  0  0
  4 48  1  6  0  0  0
 10 49  1  6  0  0  0
 18 50  1  1  0  0  0
M  END
>  <cdx:fragmentId>
5

$$$$
