99591.cdx
  Mrv1902 05222410273D          

 27 30  0  0  0  0            999 V2000
   14.0938  -11.8602    0.0289 C   0  0  2  0  0  0  0  0  0  0  0  0
   12.7637  -11.0947   -0.0998 C   0  0  0  0  0  0  0  0  0  0  0  0
   11.4302  -11.8650   -0.1131 C   0  0  0  0  0  0  0  0  0  0  0  0
   10.1001  -11.0995   -0.2418 C   0  0  0  0  0  0  0  0  0  0  0  0
   10.1035   -9.5639   -0.3572 C   0  0  0  0  0  0  0  0  0  0  0  0
   11.4370   -8.7936   -0.3439 C   0  0  0  0  0  0  0  0  0  0  0  0
   12.7671   -9.5591   -0.2152 C   0  0  0  0  0  0  0  0  0  0  0  0
   14.1006   -8.7889   -0.2018 C   0  0  0  0  0  0  0  0  0  0  0  0
   15.4307   -9.5543   -0.0731 C   0  0  2  0  0  0  0  0  0  0  0  0
   15.4273  -11.0900    0.0422 C   0  0  0  0  0  0  0  0  0  0  0  0
   16.7574  -11.8554    0.1709 C   0  0  0  0  0  0  0  0  0  0  0  0
   16.7540  -13.3911    0.2863 C   0  0  0  0  0  0  0  0  0  0  0  0
   15.4205  -14.1613    0.2730 C   0  0  0  0  0  0  0  0  0  0  0  0
   14.0904  -13.3959    0.1443 C   0  0  0  0  0  0  0  0  0  0  0  0
   13.4493  -10.9340    0.0000 C   0  0  0  0  0  0  0  0  0  0  0  0
   13.4493  -10.0613    0.0000 C   0  0  0  0  0  0  0  0  0  0  0  0
   14.4247   -9.5480    0.0000 N   0  3  1  0  0  0  0  0  0  0  0  0
   15.4171  -15.6970    0.3884 O   0  0  0  0  0  0  0  0  0  0  0  0
   14.8232   -8.0605    0.0000 C   0  0  0  0  0  0  0  0  0  0  0  0
   18.0841  -14.1565    0.4150 O   0  0  0  0  0  0  0  0  0  0  0  0
   19.4175  -13.3863    0.4284 C   0  0  0  0  0  0  0  0  0  0  0  0
    8.7667  -11.8698   -0.2551 O   0  0  0  0  0  0  0  0  0  0  0  0
    7.4366  -11.1043   -0.3838 C   0  0  0  0  0  0  0  0  0  0  0  0
   11.4268  -13.4006    0.0023 O   0  0  0  0  0  0  0  0  0  0  0  0
   16.5196   -8.4654   -0.0731 H   0  0  0  0  0  0  0  0  0  0  0  0
   16.7610  -10.3200    0.0422 H   0  0  0  0  0  0  0  0  0  0  0  0
   13.3357   -8.4591    0.0000 C   0  0  0  0  0  0  0  0  0  0  0  0
  1  2  1  0  0  0  0
  2  3  1  0  0  0  0
  3  4  2  0  0  0  0
  4  5  1  0  0  0  0
  5  6  2  0  0  0  0
  6  7  1  0  0  0  0
  7  8  1  0  0  0  0
  8  9  1  0  0  0  0
  9 10  1  0  0  0  0
 10 11  1  0  0  0  0
 11 12  2  0  0  0  0
 12 13  1  0  0  0  0
 13 14  1  0  0  0  0
 15 16  1  0  0  0  0
 16 17  1  0  0  0  0
  1 14  1  6  0  0  0
  1 15  1  0  0  0  0
  9 17  1  0  0  0  0
  1 10  1  0  0  0  0
  2  7  2  0  0  0  0
 13 18  2  0  0  0  0
 17 19  1  0  0  0  0
 20 21  1  0  0  0  0
 12 20  1  0  0  0  0
 22 23  1  0  0  0  0
  4 22  1  0  0  0  0
  3 24  1  0  0  0  0
  9 25  1  6  0  0  0
 10 26  1  6  0  0  0
 17 27  1  0  0  0  0
M  CHG  1  17   1
M  END
>  <cdx:fragmentId>
361

$$$$
