99597.cdx
  Mrv1902 05222410262D          

 86 95  0  0  0  0            999 V2000
   17.2345   -4.8675    0.0000 C   0  0  0  0  0  0  0  0  0  0  0  0
   17.9490   -4.4550    0.0000 C   0  0  0  0  0  0  0  0  0  0  0  0
   18.6635   -4.8675    0.0000 C   0  0  0  0  0  0  0  0  0  0  0  0
   18.6635   -5.6925    0.0000 C   0  0  0  0  0  0  0  0  0  0  0  0
   17.9490   -6.1050    0.0000 C   0  0  2  0  0  0  0  0  0  0  0  0
   17.9490   -6.9300    0.0000 C   0  0  0  0  0  0  0  0  0  0  0  0
   17.2345   -7.3425    0.0000 C   0  0  0  0  0  0  0  0  0  0  0  0
   16.5200   -6.9300    0.0000 C   0  0  1  0  0  0  0  0  0  0  0  0
   15.8056   -7.3425    0.0000 C   0  0  2  0  0  0  0  0  0  0  0  0
   15.8056   -8.1675    0.0000 C   0  0  0  0  0  0  0  0  0  0  0  0
   15.0911   -8.5800    0.0000 C   0  0  0  0  0  0  0  0  0  0  0  0
   14.3766   -8.1675    0.0000 C   0  0  1  0  0  0  0  0  0  0  0  0
   13.6622   -8.5800    0.0000 C   0  0  0  0  0  0  0  0  0  0  0  0
   12.9477   -8.1675    0.0000 C   0  0  2  0  0  0  0  0  0  0  0  0
   12.9477   -7.3425    0.0000 C   0  0  0  0  0  0  0  0  0  0  0  0
   13.6622   -6.9300    0.0000 C   0  0  0  0  0  0  0  0  0  0  0  0
   14.3766   -7.3425    0.0000 C   0  0  2  0  0  0  0  0  0  0  0  0
   15.0911   -6.9300    0.0000 C   0  0  1  0  0  0  0  0  0  0  0  0
   15.0911   -6.1050    0.0000 C   0  0  0  0  0  0  0  0  0  0  0  0
   15.8056   -5.6925    0.0000 C   0  0  0  0  0  0  0  0  0  0  0  0
   16.5200   -6.1050    0.0000 C   0  0  0  0  0  0  0  0  0  0  0  0
   17.2345   -5.6925    0.0000 C   0  0  2  0  0  0  0  0  0  0  0  0
   18.6635   -6.5175    0.0000 C   0  0  0  0  0  0  0  0  0  0  0  0
   18.6635   -7.3425    0.0000 O   0  0  0  0  0  0  0  0  0  0  0  0
   14.0747   -9.2944    0.0000 C   0  0  0  0  0  0  0  0  0  0  0  0
   13.2497   -9.2944    0.0000 C   0  0  0  0  0  0  0  0  0  0  0  0
   17.5365   -3.7405    0.0000 C   0  0  0  0  0  0  0  0  0  0  0  0
   18.3615   -3.7405    0.0000 C   0  0  0  0  0  0  0  0  0  0  0  0
   12.2332   -8.5800    0.0000 O   0  0  0  0  0  0  0  0  0  0  0  0
   11.5187   -7.3425    0.0000 O   0  0  0  0  0  0  0  0  0  0  0  0
   11.5187   -8.1675    0.0000 C   0  0  2  0  0  0  0  0  0  0  0  0
   10.8043   -8.5800    0.0000 C   0  0  1  0  0  0  0  0  0  0  0  0
   10.0898   -8.1675    0.0000 C   0  0  2  0  0  0  0  0  0  0  0  0
   10.0898   -7.3425    0.0000 C   0  0  2  0  0  0  0  0  0  0  0  0
   10.8043   -6.9300    0.0000 C   0  0  0  0  0  0  0  0  0  0  0  0
    9.3753   -6.9300    0.0000 O   0  0  0  0  0  0  0  0  0  0  0  0
    9.3753   -8.5800    0.0000 O   0  0  0  0  0  0  0  0  0  0  0  0
   10.8043   -9.4050    0.0000 O   0  0  0  0  0  0  0  0  0  0  0  0
    9.3753   -9.4050    0.0000 O   0  0  0  0  0  0  0  0  0  0  0  0
   10.0898   -9.8175    0.0000 C   0  0  2  0  0  0  0  0  0  0  0  0
   10.0898  -10.6425    0.0000 C   0  0  1  0  0  0  0  0  0  0  0  0
    9.3753  -11.0550    0.0000 C   0  0  1  0  0  0  0  0  0  0  0  0
    8.6609  -10.6425    0.0000 C   0  0  2  0  0  0  0  0  0  0  0  0
    8.6609   -9.8175    0.0000 C   0  0  2  0  0  0  0  0  0  0  0  0
    7.9464   -9.4050    0.0000 C   0  0  0  0  0  0  0  0  0  0  0  0
    7.9464  -11.0550    0.0000 O   0  0  0  0  0  0  0  0  0  0  0  0
   10.8043  -11.0550    0.0000 O   0  0  0  0  0  0  0  0  0  0  0  0
    6.5091  -13.5129    0.0000 O   0  0  0  0  0  0  0  0  0  0  0  0
    5.8082  -12.2676    0.0000 O   0  0  0  0  0  0  0  0  0  0  0  0
    5.7992  -13.0926    0.0000 C   0  0  2  0  0  0  0  0  0  0  0  0
    5.0802  -13.4973    0.0000 C   0  0  1  0  0  0  0  0  0  0  0  0
    4.3703  -13.0770    0.0000 C   0  0  2  0  0  0  0  0  0  0  0  0
    4.3793  -12.2521    0.0000 C   0  0  1  0  0  0  0  0  0  0  0  0
    5.0982  -11.8474    0.0000 C   0  0  1  0  0  0  0  0  0  0  0  0
    5.1072  -11.0224    0.0000 C   0  0  0  0  0  0  0  0  0  0  0  0
    4.3928  -10.6099    0.0000 O   0  0  0  0  0  0  0  0  0  0  0  0
    3.6514  -13.4817    0.0000 O   0  0  0  0  0  0  0  0  0  0  0  0
    5.0712  -14.3222    0.0000 O   0  0  0  0  0  0  0  0  0  0  0  0
    3.6694  -11.8318    0.0000 O   0  0  0  0  0  0  0  0  0  0  0  0
   14.3766   -8.9925    0.0000 H   0  0  0  0  0  0  0  0  0  0  0  0
   17.2345   -6.5175    0.0000 H   0  0  0  0  0  0  0  0  0  0  0  0
   21.5284   -8.9872    0.0000 O   0  0  0  0  0  0  0  0  0  0  0  0
    9.3753  -13.5300    0.0000 O   0  0  0  0  0  0  0  0  0  0  0  0
    7.2319  -12.2925    0.0000 C   0  0  0  0  0  0  0  0  0  0  0  0
    7.2319  -13.1175    0.0000 C   0  0  2  0  0  0  0  0  0  0  0  0
    7.9464  -13.5300    0.0000 C   0  0  2  0  0  0  0  0  0  0  0  0
    8.6609  -13.1175    0.0000 C   0  0  2  0  0  0  0  0  0  0  0  0
    8.6609  -12.2925    0.0000 C   0  0  1  0  0  0  0  0  0  0  0  0
    7.9464  -11.8800    0.0000 O   0  0  0  0  0  0  0  0  0  0  0  0
    9.3753  -11.8800    0.0000 O   0  0  0  0  0  0  0  0  0  0  0  0
   20.8130   -8.5765    0.0000 C   0  0  0  0  0  0  0  0  0  0  0  0
   20.8048   -5.2765    0.0000 O   0  0  0  0  0  0  0  0  0  0  0  0
   22.2358   -6.0979    0.0000 O   0  0  0  0  0  0  0  0  0  0  0  0
   22.2399   -7.7479    0.0000 O   0  0  0  0  0  0  0  0  0  0  0  0
   20.8109   -7.7515    0.0000 C   0  0  2  0  0  0  0  0  0  0  0  0
   21.5244   -7.3372    0.0000 C   0  0  2  0  0  0  0  0  0  0  0  0
   21.5223   -6.5122    0.0000 C   0  0  1  0  0  0  0  0  0  0  0  0
   20.8069   -6.1015    0.0000 C   0  0  2  0  0  0  0  0  0  0  0  0
   20.0934   -6.5157    0.0000 C   0  0  1  0  0  0  0  0  0  0  0  0
   20.0954   -7.3407    0.0000 O   0  0  0  0  0  0  0  0  0  0  0  0
   19.3779   -6.1050    0.0000 O   0  0  0  0  0  0  0  0  0  0  0  0
   14.3766   -6.5175    0.0000 C   0  0  0  0  0  0  0  0  0  0  0  0
   15.8056   -6.5175    0.0000 C   0  0  0  0  0  0  0  0  0  0  0  0
   16.5200   -7.7550    0.0000 C   0  0  0  0  0  0  0  0  0  0  0  0
   15.0911   -7.7550    0.0000 H   0  0  0  0  0  0  0  0  0  0  0  0
    7.9464  -14.3550    0.0000 O   0  0  0  0  0  0  0  0  0  0  0  0
 79 81  1  1  0  0  0
 68 70  1  1  0  0  0
 49 50  1  0  0  0  0
 50 51  1  0  0  0  0
 67 63  1  6  0  0  0
 69 64  1  0  0  0  0
 65 64  1  0  0  0  0
 66 65  1  0  0  0  0
 75 71  1  1  0  0  0
 71 62  1  0  0  0  0
 78 72  1  6  0  0  0
 77 73  1  1  0  0  0
 76 74  1  6  0  0  0
 80 75  1  0  0  0  0
 76 75  1  0  0  0  0
 77 76  1  0  0  0  0
 78 77  1  0  0  0  0
  1  2  1  0  0  0  0
  2  3  1  0  0  0  0
  3  4  1  0  0  0  0
  4  5  1  0  0  0  0
  5  6  1  0  0  0  0
  6  7  1  0  0  0  0
  7  8  1  0  0  0  0
  8  9  1  0  0  0  0
  9 10  1  0  0  0  0
 10 11  1  0  0  0  0
 11 12  1  0  0  0  0
 12 13  1  0  0  0  0
 13 14  1  0  0  0  0
 14 15  1  0  0  0  0
 15 16  1  0  0  0  0
 16 17  1  0  0  0  0
 12 17  1  0  0  0  0
 17 18  1  0  0  0  0
  9 18  1  0  0  0  0
 18 19  1  0  0  0  0
 19 20  1  0  0  0  0
 20 21  2  0  0  0  0
  8 21  1  0  0  0  0
 21 22  1  0  0  0  0
  5 22  1  0  0  0  0
  1 22  1  0  0  0  0
 23 24  2  0  0  0  0
 23 81  1  0  0  0  0
  5 23  1  1  0  0  0
 13 25  1  0  0  0  0
 13 26  1  0  0  0  0
  2 27  1  0  0  0  0
  2 28  1  0  0  0  0
 30 31  1  0  0  0  0
 31 32  1  0  0  0  0
 32 33  1  0  0  0  0
 33 34  1  0  0  0  0
 34 35  1  0  0  0  0
 30 35  1  0  0  0  0
 34 36  1  1  0  0  0
 33 37  1  1  0  0  0
 39 40  1  0  0  0  0
 40 41  1  0  0  0  0
 41 42  1  0  0  0  0
 42 43  1  0  0  0  0
 43 44  1  0  0  0  0
 39 44  1  0  0  0  0
 44 45  1  6  0  0  0
 43 46  1  1  0  0  0
 41 47  1  6  0  0  0
 67 66  1  0  0  0  0
 68 67  1  0  0  0  0
 69 68  1  0  0  0  0
 51 52  1  0  0  0  0
 52 53  1  0  0  0  0
 53 54  1  0  0  0  0
 49 54  1  0  0  0  0
 55 56  1  0  0  0  0
 54 55  1  1  0  0  0
 52 57  1  1  0  0  0
 51 58  1  6  0  0  0
 53 59  1  6  0  0  0
 50 48  1  1  0  0  0
 42 70  1  6  0  0  0
 40 38  1  1  0  0  0
 32 38  1  6  0  0  0
 31 29  1  1  0  0  0
 14 29  1  1  0  0  0
 12 60  1  6  0  0  0
 22 61  1  1  0  0  0
 79 78  1  0  0  0  0
 80 79  1  0  0  0  0
 17 82  1  1  0  0  0
  9 83  1  1  0  0  0
  8 84  1  6  0  0  0
 18 85  1  6  0  0  0
 66 86  1  6  0  0  0
 65 48  1  6  0  0  0
M  END
>  <cdx:fragmentId>
181457

$$$$
