996.cdx
  Mrv1902 05222410232D          

  7  7  0  0  0  0            999 V2000
    7.1995   -6.2703    0.0000 C   0  0  0  0  0  0  0  0  0  0  0  0
    7.9189   -6.6742    0.0000 C   0  0  0  0  0  0  0  0  0  0  0  0
    7.9287   -7.4992    0.0000 C   0  0  0  0  0  0  0  0  0  0  0  0
    7.2192   -7.9202    0.0000 C   0  0  0  0  0  0  0  0  0  0  0  0
    6.4999   -7.5162    0.0000 C   0  0  0  0  0  0  0  0  0  0  0  0
    6.4900   -6.6913    0.0000 C   0  0  0  0  0  0  0  0  0  0  0  0
    7.1897   -5.4453    0.0000 O   0  0  0  0  0  0  0  0  0  0  0  0
  1  2  1  0  0  0  0
  2  3  2  0  0  0  0
  3  4  1  0  0  0  0
  4  5  2  0  0  0  0
  5  6  1  0  0  0  0
  1  6  2  0  0  0  0
  1  7  1  0  0  0  0
M  END
>  <cdx:groupId>
23

>  <cdx:fragmentId>
5

$$$$
