99604.cdx
  Mrv1902 05222410192D          

 47 53  0  0  0  0            999 V2000
    8.1726   -8.5453    0.0000 C   0  0  2  0  0  0  0  0  0  0  0  0
    8.1726   -7.7203    0.0000 C   0  0  0  0  0  0  0  0  0  0  0  0
    8.8870   -7.3078    0.0000 C   0  0  2  0  0  0  0  0  0  0  0  0
    9.6015   -7.7203    0.0000 C   0  0  2  0  0  0  0  0  0  0  0  0
   10.3861   -7.4654    0.0000 C   0  0  1  0  0  0  0  0  0  0  0  0
   10.7217   -6.7117    0.0000 C   0  0  1  0  0  0  0  0  0  0  0  0
   11.5422   -6.6255    0.0000 C   0  0  0  0  0  0  0  0  0  0  0  0
   12.0271   -7.2929    0.0000 C   0  0  0  0  0  0  0  0  0  0  0  0
   11.6915   -8.0466    0.0000 C   0  0  1  0  0  0  0  0  0  0  0  0
   10.8711   -8.1328    0.0000 C   0  0  1  0  0  0  0  0  0  0  0  0
   10.3861   -8.8003    0.0000 C   0  0  0  0  0  0  0  0  0  0  0  0
    9.6015   -8.5453    0.0000 C   0  0  1  0  0  0  0  0  0  0  0  0
    8.8870   -8.9578    0.0000 C   0  0  2  0  0  0  0  0  0  0  0  0
    8.8870   -9.7828    0.0000 C   0  0  0  0  0  0  0  0  0  0  0  0
    8.1726  -10.1953    0.0000 C   0  0  0  0  0  0  0  0  0  0  0  0
    7.4581   -9.7828    0.0000 C   0  0  1  0  0  0  0  0  0  0  0  0
    6.7436  -10.1953    0.0000 C   0  0  0  0  0  0  0  0  0  0  0  0
    6.0292   -9.7828    0.0000 C   0  0  2  0  0  0  0  0  0  0  0  0
    6.0292   -8.9578    0.0000 C   0  0  0  0  0  0  0  0  0  0  0  0
    6.7436   -8.5453    0.0000 C   0  0  0  0  0  0  0  0  0  0  0  0
    7.4581   -8.9578    0.0000 C   0  0  2  0  0  0  0  0  0  0  0  0
    7.4581   -8.1328    0.0000 C   0  0  0  0  0  0  0  0  0  0  0  0
   12.8476   -7.2067    0.0000 O   0  0  0  0  0  0  0  0  0  0  0  0
    7.1561  -10.9098    0.0000 C   0  0  0  0  0  0  0  0  0  0  0  0
    6.3311  -10.9098    0.0000 C   0  0  0  0  0  0  0  0  0  0  0  0
    9.6015   -9.3703    0.0000 C   0  0  0  0  0  0  0  0  0  0  0  0
   10.2368   -6.0443    0.0000 C   0  0  0  0  0  0  0  0  0  0  0  0
    9.6015   -6.8953    0.0000 C   0  0  0  0  0  0  0  0  0  0  0  0
   11.2836   -8.8473    0.0000 O   0  0  0  0  0  0  0  0  0  0  0  0
   12.1765   -8.7141    0.0000 O   0  0  0  0  0  0  0  0  0  0  0  0
    9.9489   -6.7658    0.0000 H   0  0  0  0  0  0  0  0  0  0  0  0
    5.3147  -10.1953    0.0000 O   0  0  0  0  0  0  0  0  0  0  0  0
    8.8870   -6.4828    0.0000 O   0  0  0  0  0  0  0  0  0  0  0  0
    8.1726   -6.0703    0.0000 C   0  0  0  0  0  0  0  0  0  0  0  0
    8.1726   -5.2453    0.0000 O   0  0  0  0  0  0  0  0  0  0  0  0
    7.4581   -6.4828    0.0000 C   0  0  0  0  0  0  0  0  0  0  0  0
    4.6002   -9.7828    0.0000 C   0  0  2  0  0  0  0  0  0  0  0  0
    4.6002   -8.9578    0.0000 O   0  0  0  0  0  0  0  0  0  0  0  0
    3.8857   -8.5453    0.0000 C   0  0  0  0  0  0  0  0  0  0  0  0
    3.1713   -8.9578    0.0000 C   0  0  1  0  0  0  0  0  0  0  0  0
    3.1713   -9.7828    0.0000 C   0  0  1  0  0  0  0  0  0  0  0  0
    3.8857  -10.1953    0.0000 C   0  0  1  0  0  0  0  0  0  0  0  0
    3.8857  -11.0203    0.0000 O   0  0  0  0  0  0  0  0  0  0  0  0
    2.4568  -10.1953    0.0000 O   0  0  0  0  0  0  0  0  0  0  0  0
    2.4568   -8.5453    0.0000 O   0  0  0  0  0  0  0  0  0  0  0  0
    7.4581  -10.6078    0.0000 H   0  0  0  0  0  0  0  0  0  0  0  0
    8.8870   -8.1328    0.0000 H   0  0  0  0  0  0  0  0  0  0  0  0
  1  2  1  0  0  0  0
  2  3  1  0  0  0  0
  3  4  1  0  0  0  0
  4  5  1  0  0  0  0
  5  6  1  0  0  0  0
  6  7  1  0  0  0  0
  7  8  1  0  0  0  0
  8  9  1  0  0  0  0
  9 10  1  0  0  0  0
 10 11  1  0  0  0  0
 11 12  1  0  0  0  0
 12 13  1  0  0  0  0
 13 14  1  0  0  0  0
 14 15  1  0  0  0  0
 15 16  1  0  0  0  0
 16 17  1  0  0  0  0
 17 18  1  0  0  0  0
 18 19  1  0  0  0  0
 19 20  1  0  0  0  0
 20 21  1  0  0  0  0
 21 22  1  1  0  0  0
  1 22  1  1  0  0  0
  1 13  1  0  0  0  0
 16 21  1  0  0  0  0
  1 21  1  0  0  0  0
  4 12  1  0  0  0  0
  5 10  1  0  0  0  0
  8 23  2  0  0  0  0
 18 32  1  1  0  0  0
 17 24  1  0  0  0  0
 17 25  1  0  0  0  0
 12 26  1  6  0  0  0
  6 27  1  6  0  0  0
  4 28  1  1  0  0  0
 10 29  1  6  0  0  0
  9 30  1  6  0  0  0
  5 31  1  6  0  0  0
  3 33  1  1  0  0  0
 33 34  1  0  0  0  0
 34 35  2  0  0  0  0
 34 36  1  0  0  0  0
 37 32  1  1  0  0  0
 37 38  1  0  0  0  0
 38 39  1  0  0  0  0
 39 40  1  0  0  0  0
 40 41  1  0  0  0  0
 41 42  1  0  0  0  0
 42 37  1  0  0  0  0
 42 43  1  6  0  0  0
 41 44  1  1  0  0  0
 40 45  1  1  0  0  0
 16 46  1  6  0  0  0
 13 47  1  1  0  0  0
M  END
>  <cdx:fragmentId>
106

$$$$
