99609.cdx
  Mrv1902 05222410272D          

 80 84  0  0  0  0            999 V2000
    6.7694   -3.9330    0.0000 N   0  0  0  0  0  0  0  0  0  0  0  0
    6.3569   -4.6475    0.0000 C   0  0  0  0  0  0  0  0  0  0  0  0
    6.7694   -5.3620    0.0000 O   0  0  0  0  0  0  0  0  0  0  0  0
    7.5944   -5.3620    0.0000 O   0  0  0  0  0  0  0  0  0  0  0  0
    8.0069   -4.6475    0.0000 C   0  0  0  0  0  0  0  0  0  0  0  0
    7.5944   -3.9330    0.0000 C   0  0  0  0  0  0  0  0  0  0  0  0
    5.5319   -4.6475    0.0000 C   0  0  0  0  0  0  0  0  0  0  0  0
    5.1194   -5.3620    0.0000 N   0  0  0  0  0  0  0  0  0  0  0  0
    5.5319   -6.0764    0.0000 C   0  0  0  0  0  0  0  0  0  0  0  0
    6.3569   -6.0764    0.0000 O   0  0  0  0  0  0  0  0  0  0  0  0
    8.0069   -6.0764    0.0000 O   0  0  0  0  0  0  0  0  0  0  0  0
    8.8319   -6.0764    0.0000 C   0  0  0  0  0  0  0  0  0  0  0  0
    9.2444   -5.3620    0.0000 C   0  0  0  0  0  0  0  0  0  0  0  0
    8.8319   -4.6475    0.0000 N   0  0  0  0  0  0  0  0  0  0  0  0
    5.1194   -6.7909    0.0000 C   0  0  0  0  0  0  0  0  0  0  0  0
    5.5319   -7.5054    0.0000 N   0  0  0  0  0  0  0  0  0  0  0  0
    5.1194   -8.2199    0.0000 C   0  0  0  0  0  0  0  0  0  0  0  0
    5.5319   -8.9343    0.0000 C   0  0  0  0  0  0  0  0  0  0  0  0
    5.1194   -9.6488    0.0000 N   0  0  0  0  0  0  0  0  0  0  0  0
    5.5319  -10.3633    0.0000 C   0  0  0  0  0  0  0  0  0  0  0  0
    6.3569  -10.3633    0.0000 O   0  0  0  0  0  0  0  0  0  0  0  0
    5.1194  -11.0777    0.0000 C   0  0  0  0  0  0  0  0  0  0  0  0
    5.5319  -11.7922    0.0000 N   0  0  0  0  0  0  0  0  0  0  0  0
    6.3569  -11.7922    0.0000 C   0  0  0  0  0  0  0  0  0  0  0  0
    6.7694  -11.0777    0.0000 O   0  0  0  0  0  0  0  0  0  0  0  0
    8.8319   -7.5054    0.0000 C   0  0  0  0  0  0  0  0  0  0  0  0
    9.2444   -6.7909    0.0000 N   0  0  0  0  0  0  0  0  0  0  0  0
    8.8319   -8.9343    0.0000 N   0  0  0  0  0  0  0  0  0  0  0  0
    9.2444   -8.2199    0.0000 C   0  0  0  0  0  0  0  0  0  0  0  0
    8.0069  -10.3633    0.0000 O   0  0  0  0  0  0  0  0  0  0  0  0
    8.8319  -10.3633    0.0000 C   0  0  0  0  0  0  0  0  0  0  0  0
    9.2444   -9.6488    0.0000 C   0  0  0  0  0  0  0  0  0  0  0  0
    7.5944  -11.0777    0.0000 O   0  0  0  0  0  0  0  0  0  0  0  0
    8.0069  -11.7922    0.0000 C   0  0  0  0  0  0  0  0  0  0  0  0
    8.8319  -11.7922    0.0000 C   0  0  0  0  0  0  0  0  0  0  0  0
    9.2444  -11.0777    0.0000 N   0  0  0  0  0  0  0  0  0  0  0  0
    6.7694  -12.5067    0.0000 C   0  0  0  0  0  0  0  0  0  0  0  0
    7.5944  -12.5067    0.0000 N   0  0  0  0  0  0  0  0  0  0  0  0
    5.1194   -3.9330    0.0000 C   0  0  0  0  0  0  0  0  0  0  0  0
    5.5319   -3.2186    0.0000 C   0  0  0  0  0  0  0  0  0  0  0  0
    4.2944   -3.9330    0.0000 C   0  0  0  0  0  0  0  0  0  0  0  0
    4.2944   -6.7909    0.0000 C   0  0  0  0  0  0  0  0  0  0  0  0
    3.8819   -6.0764    0.0000 C   0  0  0  0  0  0  0  0  0  0  0  0
    3.0569   -6.0764    0.0000 C   0  0  0  0  0  0  0  0  0  0  0  0
    4.2944   -5.3620    0.0000 C   0  0  0  0  0  0  0  0  0  0  0  0
    4.2944   -8.2199    0.0000 O   0  0  0  0  0  0  0  0  0  0  0  0
    4.7069   -8.9343    0.0000 C   0  0  0  0  0  0  0  0  0  0  0  0
    4.2944   -9.6488    0.0000 C   0  0  0  0  0  0  0  0  0  0  0  0
    3.4694   -9.6488    0.0000 S   0  0  0  0  0  0  0  0  0  0  0  0
    6.3569  -13.2212    0.0000 C   0  0  0  0  0  0  0  0  0  0  0  0
    6.7694  -13.9356    0.0000 C   0  0  0  0  0  0  0  0  0  0  0  0
    5.5319  -13.2212    0.0000 C   0  0  0  0  0  0  0  0  0  0  0  0
    5.1194  -13.9356    0.0000 C   0  0  0  0  0  0  0  0  0  0  0  0
    9.2444  -12.5067    0.0000 C   0  0  0  0  0  0  0  0  0  0  0  0
   10.0694  -12.5067    0.0000 C   0  0  0  0  0  0  0  0  0  0  0  0
   10.0694   -9.6488    0.0000 C   0  0  0  0  0  0  0  0  0  0  0  0
   10.0694   -8.2199    0.0000 O   0  0  0  0  0  0  0  0  0  0  0  0
   10.7839   -9.2363    0.0000 C   0  0  0  0  0  0  0  0  0  0  0  0
   11.4983   -9.6488    0.0000 C   0  0  0  0  0  0  0  0  0  0  0  0
   12.2128   -9.2363    0.0000 C   0  0  0  0  0  0  0  0  0  0  0  0
   12.2128   -8.4113    0.0000 C   0  0  0  0  0  0  0  0  0  0  0  0
   11.4983   -7.9988    0.0000 C   0  0  0  0  0  0  0  0  0  0  0  0
   10.7839   -8.4113    0.0000 C   0  0  0  0  0  0  0  0  0  0  0  0
    9.6569   -7.5054    0.0000 C   0  0  0  0  0  0  0  0  0  0  0  0
   10.3714   -7.0929    0.0000 C   0  0  0  0  0  0  0  0  0  0  0  0
   11.0858   -7.5054    0.0000 C   0  0  0  0  0  0  0  0  0  0  0  0
   11.8003   -7.0929    0.0000 C   0  0  0  0  0  0  0  0  0  0  0  0
   11.8003   -6.2679    0.0000 C   0  0  0  0  0  0  0  0  0  0  0  0
   11.0858   -5.8554    0.0000 C   0  0  0  0  0  0  0  0  0  0  0  0
   10.3714   -6.2679    0.0000 C   0  0  0  0  0  0  0  0  0  0  0  0
    7.8493   -3.1484    0.0000 C   0  0  0  0  0  0  0  0  0  0  0  0
    7.1819   -2.6635    0.0000 C   0  0  0  0  0  0  0  0  0  0  0  0
    6.5145   -3.1484    0.0000 C   0  0  0  0  0  0  0  0  0  0  0  0
   10.0514   -5.1904    0.0000 C   0  0  0  0  0  0  0  0  0  0  0  0
   10.1376   -4.3700    0.0000 C   0  0  0  0  0  0  0  0  0  0  0  0
    9.3839   -4.0344    0.0000 C   0  0  0  0  0  0  0  0  0  0  0  0
    5.1194   -2.5041    0.0000 C   0  0  0  0  0  0  0  0  0  0  0  0
    3.0569   -8.9343    0.0000 C   0  0  0  0  0  0  0  0  0  0  0  0
    8.8319  -13.2212    0.0000 C   0  0  0  0  0  0  0  0  0  0  0  0
    3.0569  -10.3633    0.0000 O   0  0  0  0  0  0  0  0  0  0  0  0
  1  2  1  0  0  0  0
  2  3  2  0  0  0  0
  4  5  2  0  0  0  0
  5  6  1  0  0  0  0
  6  1  1  0  0  0  0
  2  7  1  0  0  0  0
  7  8  1  0  0  0  0
  8  9  1  0  0  0  0
  9 10  2  0  0  0  0
 11 12  2  0  0  0  0
 12 13  1  0  0  0  0
 13 14  1  0  0  0  0
 14  5  1  0  0  0  0
  9 15  1  0  0  0  0
 15 16  1  0  0  0  0
 16 17  1  0  0  0  0
 17 18  1  0  0  0  0
 18 19  1  0  0  0  0
 19 20  1  0  0  0  0
 20 21  2  0  0  0  0
 20 22  1  0  0  0  0
 22 23  1  0  0  0  0
 23 24  1  0  0  0  0
 24 25  2  0  0  0  0
 26 27  1  0  0  0  0
 27 12  1  0  0  0  0
 28 29  1  0  0  0  0
 29 26  1  0  0  0  0
 30 31  2  0  0  0  0
 31 32  1  0  0  0  0
 32 28  1  0  0  0  0
 33 34  2  0  0  0  0
 34 35  1  0  0  0  0
 35 36  1  0  0  0  0
 36 31  1  0  0  0  0
 24 37  1  0  0  0  0
 37 38  1  0  0  0  0
 38 34  1  0  0  0  0
  7 39  1  0  0  0  0
 39 40  1  0  0  0  0
 39 41  1  0  0  0  0
 15 42  1  0  0  0  0
 42 43  1  0  0  0  0
 43 44  1  0  0  0  0
 43 45  1  0  0  0  0
 17 46  2  0  0  0  0
 18 47  1  0  0  0  0
 47 48  1  0  0  0  0
 48 49  1  0  0  0  0
 37 50  1  0  0  0  0
 50 51  1  0  0  0  0
 50 52  1  0  0  0  0
 52 53  1  0  0  0  0
 35 54  1  0  0  0  0
 54 55  1  0  0  0  0
 32 56  1  0  0  0  0
 29 57  2  0  0  0  0
 56 58  1  0  0  0  0
 58 59  2  0  0  0  0
 59 60  1  0  0  0  0
 60 61  2  0  0  0  0
 61 62  1  0  0  0  0
 62 63  2  0  0  0  0
 63 58  1  0  0  0  0
 26 64  1  0  0  0  0
 64 65  1  0  0  0  0
 65 66  2  0  0  0  0
 66 67  1  0  0  0  0
 67 68  2  0  0  0  0
 68 69  1  0  0  0  0
 69 70  2  0  0  0  0
 70 65  1  0  0  0  0
  6 71  1  0  0  0  0
 71 72  1  0  0  0  0
 72 73  1  0  0  0  0
 73  1  1  0  0  0  0
 13 74  1  0  0  0  0
 74 75  1  0  0  0  0
 75 76  1  0  0  0  0
 76 14  1  0  0  0  0
 40 77  1  0  0  0  0
 49 78  1  0  0  0  0
 54 79  1  0  0  0  0
 49 80  2  0  0  0  0
M  END
>  <cdx:fragmentId>
5

$$$$
