99605.cdx
  Mrv1902 05222410192D          

 50 57  0  0  0  0            999 V2000
    9.7034   -7.5069    0.0000 C   0  0  2  0  0  0  0  0  0  0  0  0
    9.2185   -8.1743    0.0000 C   0  0  1  0  0  0  0  0  0  0  0  0
    8.4339   -7.9194    0.0000 C   0  0  1  0  0  0  0  0  0  0  0  0
    7.7194   -8.3319    0.0000 C   0  0  2  0  0  0  0  0  0  0  0  0
    7.7194   -9.1569    0.0000 C   0  0  0  0  0  0  0  0  0  0  0  0
    7.0049   -9.5694    0.0000 C   0  0  0  0  0  0  0  0  0  0  0  0
    6.2905   -9.1569    0.0000 C   0  0  1  0  0  0  0  0  0  0  0  0
    5.5760   -9.5694    0.0000 C   0  0  1  0  0  0  0  0  0  0  0  0
    4.8615   -9.1569    0.0000 C   0  0  2  0  0  0  0  0  0  0  0  0
    4.8615   -8.3319    0.0000 C   0  0  0  0  0  0  0  0  0  0  0  0
    5.5760   -7.9194    0.0000 C   0  0  0  0  0  0  0  0  0  0  0  0
    6.2905   -8.3319    0.0000 C   0  0  1  0  0  0  0  0  0  0  0  0
    6.2905   -7.5069    0.0000 C   0  0  0  0  0  0  0  0  0  0  0  0
    7.0049   -7.9194    0.0000 C   0  0  1  0  0  0  0  0  0  0  0  0
    7.0049   -7.0944    0.0000 C   0  0  0  0  0  0  0  0  0  0  0  0
    7.7194   -6.6819    0.0000 C   0  0  0  0  0  0  0  0  0  0  0  0
    8.4339   -7.0944    0.0000 C   0  0  2  0  0  0  0  0  0  0  0  0
    9.2185   -6.8395    0.0000 C   0  0  1  0  0  0  0  0  0  0  0  0
    9.4380   -6.0442    0.0000 C   0  0  1  0  0  0  0  0  0  0  0  0
   10.1966   -5.7199    0.0000 C   0  0  0  0  0  0  0  0  0  0  0  0
   10.9231   -6.1109    0.0000 C   0  0  2  0  0  0  0  0  0  0  0  0
   11.0704   -6.9226    0.0000 C   0  0  2  0  0  0  0  0  0  0  0  0
   10.5276   -7.5439    0.0000 O   0  0  0  0  0  0  0  0  0  0  0  0
    9.9113   -6.4564    0.0000 O   0  0  0  0  0  0  0  0  0  0  0  0
    9.4734   -8.9590    0.0000 O   0  0  0  0  0  0  0  0  0  0  0  0
    4.1471   -9.5694    0.0000 O   0  0  0  0  0  0  0  0  0  0  0  0
    8.8167   -5.5014    0.0000 C   0  0  0  0  0  0  0  0  0  0  0  0
    8.4339   -6.2694    0.0000 C   0  0  0  0  0  0  0  0  0  0  0  0
    5.9885  -10.2839    0.0000 C   0  0  0  0  0  0  0  0  0  0  0  0
    5.1635  -10.2839    0.0000 C   0  0  0  0  0  0  0  0  0  0  0  0
    8.4339   -8.7444    0.0000 C   0  0  0  0  0  0  0  0  0  0  0  0
   11.6521   -7.9390    0.0000 C   0  0  0  0  0  0  0  0  0  0  0  0
   11.8657   -7.1421    0.0000 C   0  0  0  0  0  0  0  0  0  0  0  0
   12.0792   -6.3452    0.0000 C   0  0  0  0  0  0  0  0  0  0  0  0
   12.6609   -7.3616    0.0000 O   0  0  0  0  0  0  0  0  0  0  0  0
    7.7194   -7.5069    0.0000 H   0  0  0  0  0  0  0  0  0  0  0  0
    6.2905   -9.9819    0.0000 H   0  0  0  0  0  0  0  0  0  0  0  0
    8.7303   -6.1744    0.0000 H   0  0  0  0  0  0  0  0  0  0  0  0
   11.5905   -5.6260    0.0000 H   0  0  0  0  0  0  0  0  0  0  0  0
   11.7849   -6.5101    0.0000 H   0  0  0  0  0  0  0  0  0  0  0  0
    3.4326   -9.1569    0.0000 C   0  0  2  0  0  0  0  0  0  0  0  0
    3.4326   -8.3319    0.0000 O   0  0  0  0  0  0  0  0  0  0  0  0
    2.7181   -7.9194    0.0000 C   0  0  0  0  0  0  0  0  0  0  0  0
    2.0036   -8.3319    0.0000 C   0  0  2  0  0  0  0  0  0  0  0  0
    2.0036   -9.1569    0.0000 C   0  0  1  0  0  0  0  0  0  0  0  0
    2.7181   -9.5694    0.0000 C   0  0  1  0  0  0  0  0  0  0  0  0
    2.7181  -10.3944    0.0000 O   0  0  0  0  0  0  0  0  0  0  0  0
    1.2892   -9.5694    0.0000 O   0  0  0  0  0  0  0  0  0  0  0  0
    1.2892   -7.9194    0.0000 O   0  0  0  0  0  0  0  0  0  0  0  0
   10.2336   -4.8958    0.0000 O   0  0  0  0  0  0  0  0  0  0  0  0
  1  2  1  0  0  0  0
  2  3  1  0  0  0  0
  3  4  1  0  0  0  0
  4  5  1  0  0  0  0
  5  6  1  0  0  0  0
  6  7  1  0  0  0  0
  7  8  1  0  0  0  0
  8  9  1  0  0  0  0
  9 10  1  0  0  0  0
 10 11  1  0  0  0  0
 11 12  1  0  0  0  0
 12 13  1  1  0  0  0
 14 13  1  1  0  0  0
 14 15  1  0  0  0  0
 15 16  1  0  0  0  0
 16 17  1  0  0  0  0
 17 18  1  0  0  0  0
 18 19  1  0  0  0  0
 19 20  1  0  0  0  0
 20 21  1  0  0  0  0
 21 22  1  0  0  0  0
 22 23  1  0  0  0  0
  1 23  1  0  0  0  0
  1 24  1  1  0  0  0
 21 24  1  0  0  0  0
  1 18  1  0  0  0  0
  3 17  1  0  0  0  0
 12 14  1  0  0  0  0
  4 14  1  0  0  0  0
  7 12  1  0  0  0  0
  2 25  1  6  0  0  0
  9 26  1  1  0  0  0
 19 27  1  6  0  0  0
 17 28  1  1  0  0  0
  8 29  1  0  0  0  0
  8 30  1  1  0  0  0
  3 31  1  6  0  0  0
 32 33  1  0  0  0  0
 33 34  1  0  0  0  0
 33 35  1  0  0  0  0
 22 33  1  0  0  0  0
  4 36  1  1  0  0  0
  7 37  1  6  0  0  0
 18 38  1  6  0  0  0
 21 39  1  1  0  0  0
 22 40  1  6  0  0  0
 41 26  1  1  0  0  0
 41 42  1  0  0  0  0
 42 43  1  0  0  0  0
 43 44  1  0  0  0  0
 44 45  1  0  0  0  0
 45 46  1  0  0  0  0
 46 41  1  0  0  0  0
 46 47  1  6  0  0  0
 45 48  1  1  0  0  0
 44 49  1  6  0  0  0
 20 50  1  0  0  0  0
M  END
>  <cdx:fragmentId>
74183

$$$$
