99603.cdx
  Mrv1902 05222410182D          

 32 36  0  0  0  0            999 V2000
    3.9329  -10.6558    0.0000 C   0  0  1  0  0  0  0  0  0  0  0  0
    3.9329   -9.8308    0.0000 C   0  0  0  0  0  0  0  0  0  0  0  0
    4.6473   -9.4183    0.0000 C   0  0  0  0  0  0  0  0  0  0  0  0
    4.6473  -11.0683    0.0000 C   0  0  2  0  0  0  0  0  0  0  0  0
    5.3618  -10.6558    0.0000 C   0  0  0  0  0  0  0  0  0  0  0  0
    6.0763  -11.0683    0.0000 C   0  0  0  0  0  0  0  0  0  0  0  0
    6.7908  -10.6558    0.0000 C   0  0  0  0  0  0  0  0  0  0  0  0
    6.7908   -9.8308    0.0000 C   0  0  1  0  0  0  0  0  0  0  0  0
    7.5052   -9.4183    0.0000 C   0  0  2  0  0  0  0  0  0  0  0  0
    8.2899   -9.6733    0.0000 C   0  0  0  0  0  0  0  0  0  0  0  0
    8.7748   -9.0058    0.0000 C   0  0  0  0  0  0  0  0  0  0  0  0
    8.2899   -8.3384    0.0000 C   0  0  2  0  0  0  0  0  0  0  0  0
    8.5448   -7.5538    0.0000 C   0  0  1  0  0  0  0  0  0  0  0  0
    9.3518   -7.3822    0.0000 C   0  0  0  0  0  0  0  0  0  0  0  0
    9.6067   -6.5976    0.0000 C   0  0  0  0  0  0  0  0  0  0  0  0
   10.4137   -6.4261    0.0000 C   0  0  0  0  0  0  0  0  0  0  0  0
   10.9657   -7.0392    0.0000 C   0  0  0  0  0  0  0  0  0  0  0  0
   10.6686   -5.6415    0.0000 C   0  0  0  0  0  0  0  0  0  0  0  0
   10.1166   -5.0284    0.0000 C   0  0  0  0  0  0  0  0  0  0  0  0
   11.4756   -5.4699    0.0000 C   0  0  0  0  0  0  0  0  0  0  0  0
    7.9928   -6.9407    0.0000 C   0  0  0  0  0  0  0  0  0  0  0  0
    7.5052   -8.5933    0.0000 C   0  0  2  0  0  0  0  0  0  0  0  0
    7.5052   -7.7683    0.0000 C   0  0  0  0  0  0  0  0  0  0  0  0
    6.7908   -8.1808    0.0000 C   0  0  0  0  0  0  0  0  0  0  0  0
    6.0763   -8.5933    0.0000 C   0  0  0  0  0  0  0  0  0  0  0  0
    6.0763   -9.4183    0.0000 C   0  0  1  0  0  0  0  0  0  0  0  0
    5.3618   -9.8308    0.0000 C   0  0  1  0  0  0  0  0  0  0  0  0
    5.3618   -9.0058    0.0000 C   0  0  0  0  0  0  0  0  0  0  0  0
    3.2184  -11.0683    0.0000 O   0  0  0  0  0  0  0  0  0  0  0  0
    7.5052  -10.2433    0.0000 C   0  0  0  0  0  0  0  0  0  0  0  0
    4.6473  -11.8933    0.0000 C   0  0  0  0  0  0  0  0  0  0  0  0
    6.7908   -9.0058    0.0000 H   0  0  0  0  0  0  0  0  0  0  0  0
  1  2  1  0  0  0  0
  2  3  1  0  0  0  0
  1  4  1  0  0  0  0
  4  5  1  0  0  0  0
  5  6  1  0  0  0  0
  6  7  1  0  0  0  0
  7  8  1  0  0  0  0
  8  9  1  0  0  0  0
  9 10  1  0  0  0  0
 10 11  1  0  0  0  0
 12 11  1  1  0  0  0
 12 13  1  0  0  0  0
 13 14  1  0  0  0  0
 14 15  1  0  0  0  0
 15 16  1  0  0  0  0
 16 17  2  0  0  0  0
 16 18  1  0  0  0  0
 18 19  1  0  0  0  0
 18 20  1  0  0  0  0
 13 21  1  6  0  0  0
 12 22  1  0  0  0  0
  9 22  1  0  0  0  0
 22 23  1  1  0  0  0
 22 24  1  0  0  0  0
 24 25  1  0  0  0  0
 25 26  1  0  0  0  0
  8 26  1  0  0  0  0
 26 27  1  0  0  0  0
  3 27  1  0  0  0  0
  5 27  1  0  0  0  0
 27 28  1  1  0  0  0
 26 28  1  1  0  0  0
  1 29  1  1  0  0  0
  9 30  1  6  0  0  0
  4 31  1  6  0  0  0
  8 32  1  1  0  0  0
M  END
>  <cdx:fragmentId>
5

$$$$
