99602.cdx
  Mrv1902 05222410182D          

 31 34  0  0  0  0            999 V2000
    3.7843  -10.3468    0.0000 C   0  0  1  0  0  0  0  0  0  0  0  0
    3.7843   -9.5218    0.0000 C   0  0  0  0  0  0  0  0  0  0  0  0
    4.4988   -9.1093    0.0000 C   0  0  0  0  0  0  0  0  0  0  0  0
    4.4988  -10.7593    0.0000 C   0  0  2  0  0  0  0  0  0  0  0  0
    5.2133  -10.3468    0.0000 C   0  0  0  0  0  0  0  0  0  0  0  0
    5.9277  -10.7593    0.0000 C   0  0  0  0  0  0  0  0  0  0  0  0
    6.6422  -10.3468    0.0000 C   0  0  0  0  0  0  0  0  0  0  0  0
    6.6422   -9.5218    0.0000 C   0  0  0  0  0  0  0  0  0  0  0  0
    7.3567   -9.1093    0.0000 C   0  0  2  0  0  0  0  0  0  0  0  0
    8.1413   -9.3642    0.0000 C   0  0  0  0  0  0  0  0  0  0  0  0
    8.6262   -8.6968    0.0000 C   0  0  0  0  0  0  0  0  0  0  0  0
    8.1413   -8.0294    0.0000 C   0  0  0  0  0  0  0  0  0  0  0  0
    8.3962   -7.2447    0.0000 C   0  0  1  0  0  0  0  0  0  0  0  0
    9.2032   -7.0732    0.0000 C   0  0  0  0  0  0  0  0  0  0  0  0
    9.4582   -6.2886    0.0000 C   0  0  0  0  0  0  0  0  0  0  0  0
   10.2651   -6.1171    0.0000 C   0  0  0  0  0  0  0  0  0  0  0  0
   10.8172   -6.7302    0.0000 C   0  0  0  0  0  0  0  0  0  0  0  0
   11.6241   -6.5586    0.0000 C   0  0  0  0  0  0  0  0  0  0  0  0
   10.5622   -7.5148    0.0000 C   0  0  0  0  0  0  0  0  0  0  0  0
    7.8442   -6.6316    0.0000 C   0  0  0  0  0  0  0  0  0  0  0  0
    7.3567   -8.2843    0.0000 C   0  0  2  0  0  0  0  0  0  0  0  0
    7.3567   -7.4593    0.0000 C   0  0  0  0  0  0  0  0  0  0  0  0
    6.6422   -7.8718    0.0000 C   0  0  0  0  0  0  0  0  0  0  0  0
    5.9277   -8.2843    0.0000 C   0  0  0  0  0  0  0  0  0  0  0  0
    5.9277   -9.1093    0.0000 C   0  0  0  0  0  0  0  0  0  0  0  0
    5.2133   -9.5218    0.0000 C   0  0  1  0  0  0  0  0  0  0  0  0
    5.2133   -8.6968    0.0000 C   0  0  0  0  0  0  0  0  0  0  0  0
    3.0699  -10.7593    0.0000 O   0  0  0  0  0  0  0  0  0  0  0  0
    7.3567   -9.9343    0.0000 C   0  0  0  0  0  0  0  0  0  0  0  0
    4.4988  -11.5843    0.0000 C   0  0  0  0  0  0  0  0  0  0  0  0
   10.5201   -5.3324    0.0000 C   0  0  0  0  0  0  0  0  0  0  0  0
  1  2  1  0  0  0  0
  2  3  1  0  0  0  0
  1  4  1  0  0  0  0
  4  5  1  0  0  0  0
  5  6  1  0  0  0  0
  6  7  1  0  0  0  0
  7  8  1  0  0  0  0
  8  9  1  0  0  0  0
  9 10  1  0  0  0  0
 10 11  1  0  0  0  0
 12 11  1  0  0  0  0
 12 13  1  0  0  0  0
 13 14  1  0  0  0  0
 14 15  1  0  0  0  0
 15 16  1  0  0  0  0
 16 17  1  0  0  0  0
 17 18  1  0  0  0  0
 17 19  1  0  0  0  0
 13 20  1  6  0  0  0
 12 21  1  0  0  0  0
  9 21  1  0  0  0  0
 21 22  1  1  0  0  0
 21 23  1  0  0  0  0
 23 24  1  0  0  0  0
 24 25  1  0  0  0  0
  8 25  2  0  0  0  0
 25 26  1  0  0  0  0
  3 26  1  0  0  0  0
  5 26  1  0  0  0  0
 26 27  1  1  0  0  0
  1 28  1  1  0  0  0
  9 29  1  6  0  0  0
  4 30  1  6  0  0  0
 16 31  2  0  0  0  0
M  END
>  <cdx:fragmentId>
5

$$$$
