100996000.cdx
  Mrv1902 05222410222D          

 40 44  0  0  0  0            999 V2000
    6.3703  -15.2803    0.0000 N   0  0  0  0  0  0  0  0  0  0  0  0
    5.6558  -15.6928    0.0000 C   0  0  0  0  0  0  0  0  0  0  0  0
    4.9413  -15.2803    0.0000 C   0  0  0  0  0  0  0  0  0  0  0  0
    4.2268  -15.6928    0.0000 C   0  0  0  0  0  0  0  0  0  0  0  0
    3.5124  -15.2803    0.0000 C   0  0  0  0  0  0  0  0  0  0  0  0
    3.5124  -14.4553    0.0000 N   0  0  0  0  0  0  0  0  0  0  0  0
    4.2268  -14.0428    0.0000 C   0  0  0  0  0  0  0  0  0  0  0  0
    4.2268  -13.2178    0.0000 C   0  0  0  0  0  0  0  0  0  0  0  0
    4.9413  -12.8053    0.0000 C   0  0  0  0  0  0  0  0  0  0  0  0
    5.6558  -13.2178    0.0000 N   0  0  0  0  0  0  0  0  0  0  0  0
    6.3703  -12.8053    0.0000 C   0  0  2  0  0  0  0  0  0  0  0  0
    7.0847  -13.2178    0.0000 C   0  0  0  0  0  0  0  0  0  0  0  0
    7.0847  -14.0428    0.0000 C   0  0  0  0  0  0  0  0  0  0  0  0
    7.7992  -14.4553    0.0000 C   0  0  0  0  0  0  0  0  0  0  0  0
    8.5133  -14.0421    0.0000 C   0  0  0  0  0  0  0  0  0  0  0  0
    9.0271  -14.6889    0.0000 O   0  0  0  0  0  0  0  0  0  0  0  0
    8.6149  -15.4036    0.0000 C   0  0  2  0  0  0  0  0  0  0  0  0
    7.7992  -15.2803    0.0000 C   0  0  2  0  0  0  0  0  0  0  0  0
    7.0847  -15.6928    0.0000 C   0  0  0  0  0  0  0  0  0  0  0  0
    7.8307  -16.4917    0.0000 C   0  0  0  0  0  0  0  0  0  0  0  0
    9.7246  -16.3742    0.0000 C   0  0  0  0  0  0  0  0  0  0  0  0
   11.0241  -14.9915    0.0000 C   0  0  0  0  0  0  0  0  0  0  0  0
   11.0241  -13.0940    0.0000 N   0  0  0  0  0  0  0  0  0  0  0  0
    9.7246  -11.7113    0.0000 C   0  0  0  0  0  0  0  0  0  0  0  0
    7.8307  -11.5938    0.0000 C   0  0  0  0  0  0  0  0  0  0  0  0
    8.5130  -13.2171    0.0000 C   0  0  0  0  0  0  0  0  0  0  0  0
    7.7987  -12.8043    0.0000 C   0  0  0  0  0  0  0  0  0  0  0  0
    7.0847  -16.5178    0.0000 O   0  0  0  0  0  0  0  0  0  0  0  0
   10.1371  -10.9969    0.0000 O   0  0  0  0  0  0  0  0  0  0  0  0
    9.2275  -12.8046    0.0000 O   0  0  0  0  0  0  0  0  0  0  0  0
    9.9419  -13.2171    0.0000 C   0  0  0  0  0  0  0  0  0  0  0  0
    9.3294  -16.6411    0.0000 C   0  0  0  0  0  0  0  0  0  0  0  0
   10.1544  -16.6411    0.0000 C   0  0  0  0  0  0  0  0  0  0  0  0
   10.5669  -17.3555    0.0000 C   0  0  0  0  0  0  0  0  0  0  0  0
   10.1544  -18.0700    0.0000 C   0  0  0  0  0  0  0  0  0  0  0  0
    9.3294  -18.0700    0.0000 C   0  0  0  0  0  0  0  0  0  0  0  0
    8.9169  -17.3555    0.0000 C   0  0  0  0  0  0  0  0  0  0  0  0
   10.5669  -18.7845    0.0000 O   0  0  0  0  0  0  0  0  0  0  0  0
    5.9578  -12.0908    0.0000 H   0  0  0  0  0  0  0  0  0  0  0  0
    7.9524  -16.0909    0.0000 H   0  0  0  0  0  0  0  0  0  0  0  0
  1  2  1  0  0  0  0
  2  3  1  0  0  0  0
  3  4  1  0  0  0  0
  4  5  1  0  0  0  0
  5  6  1  0  0  0  0
  6  7  1  0  0  0  0
  7  8  1  0  0  0  0
  8  9  1  0  0  0  0
  9 10  1  0  0  0  0
 10 11  1  0  0  0  0
 11 12  1  6  0  0  0
 12 13  2  0  0  0  0
 13 14  1  0  0  0  0
 14 15  2  0  0  0  0
 15 16  1  0  0  0  0
 16 17  1  0  0  0  0
 17 18  1  0  0  0  0
 18 19  1  0  0  0  0
 20 21  1  0  0  0  0
 21 22  1  0  0  0  0
 22 23  1  0  0  0  0
 23 24  1  0  0  0  0
 24 25  1  0  0  0  0
 26 27  2  0  0  0  0
  1 19  1  0  0  0  0
  1 20  1  0  0  0  0
 25 11  1  0  0  0  0
 14 18  1  0  0  0  0
 15 26  1  0  0  0  0
 27 12  1  0  0  0  0
 19 28  2  0  0  0  0
 24 29  2  0  0  0  0
 30 31  1  0  0  0  0
 26 30  1  0  0  0  0
 32 33  1  0  0  0  0
 33 34  2  0  0  0  0
 34 35  1  0  0  0  0
 35 36  2  0  0  0  0
 36 37  1  0  0  0  0
 32 37  2  0  0  0  0
 35 38  1  0  0  0  0
 17 32  1  1  0  0  0
 11 39  1  0  0  0  0
 18 40  1  1  0  0  0
M  END
>  <cdx:groupId>
227297

>  <cdx:fragmentId>
227176

$$$$
