99611.cdx
  Mrv1902 05222410192D          

 76 77  0  0  0  0            999 V2000
    6.3673   -5.4255    0.0000 C   0  0  2  0  0  0  0  0  0  0  0  0
    6.1075   -5.7243    0.0000 C   0  0  0  0  0  0  0  0  0  0  0  0
    6.2364   -6.0988    0.0000 C   0  0  0  0  0  0  0  0  0  0  0  0
    6.6251   -6.1743    0.0000 C   0  0  0  0  0  0  0  0  0  0  0  0
    6.8849   -5.8755    0.0000 C   0  0  0  0  0  0  0  0  0  0  0  0
    6.7560   -5.5011    0.0000 C   0  0  0  0  0  0  0  0  0  0  0  0
    6.2384   -5.0510    0.0000 O   0  0  0  0  0  0  0  0  0  0  0  0
    7.2594   -5.7466    0.0000 C   0  0  0  0  0  0  0  0  0  0  0  0
    7.1838   -6.1353    0.0000 C   0  0  0  0  0  0  0  0  0  0  0  0
    5.9766   -6.3976    0.0000 C   0  0  0  0  0  0  0  0  0  0  0  0
    6.7540   -6.5488    0.0000 C   0  0  0  0  0  0  0  0  0  0  0  0
    6.4942   -6.8476    0.0000 C   0  0  0  0  0  0  0  0  0  0  0  0
    6.6231   -7.2221    0.0000 C   0  0  0  0  0  0  0  0  0  0  0  0
    6.3633   -7.5209    0.0000 C   0  0  0  0  0  0  0  0  0  0  0  0
    6.4922   -7.8953    0.0000 C   0  0  0  0  0  0  0  0  0  0  0  0
    6.2323   -8.1942    0.0000 C   0  0  0  0  0  0  0  0  0  0  0  0
    6.3612   -8.5686    0.0000 C   0  0  0  0  0  0  0  0  0  0  0  0
    6.1014   -8.8675    0.0000 C   0  0  0  0  0  0  0  0  0  0  0  0
    6.2303   -9.2419    0.0000 C   0  0  0  0  0  0  0  0  0  0  0  0
    6.1547   -9.6306    0.0000 C   0  0  0  0  0  0  0  0  0  0  0  0
    5.8949   -9.9295    0.0000 C   0  0  0  0  0  0  0  0  0  0  0  0
    6.0238  -10.3039    0.0000 C   0  0  0  0  0  0  0  0  0  0  0  0
    6.4125  -10.3795    0.0000 C   0  0  0  0  0  0  0  0  0  0  0  0
    6.5414  -10.7539    0.0000 C   0  0  0  0  0  0  0  0  0  0  0  0
    6.9302  -10.8295    0.0000 C   0  0  0  0  0  0  0  0  0  0  0  0
    7.0591  -11.2039    0.0000 C   0  0  0  0  0  0  0  0  0  0  0  0
    7.4478  -11.2795    0.0000 C   0  0  0  0  0  0  0  0  0  0  0  0
    7.5767  -11.6540    0.0000 C   0  0  0  0  0  0  0  0  0  0  0  0
    6.7992  -11.5028    0.0000 C   0  0  0  0  0  0  0  0  0  0  0  0
    5.7640  -10.6027    0.0000 C   0  0  0  0  0  0  0  0  0  0  0  0
    6.7500   -8.6442    0.0000 C   0  0  0  0  0  0  0  0  0  0  0  0
    7.0118   -7.2976    0.0000 C   0  0  0  0  0  0  0  0  0  0  0  0
    7.9654  -11.7295    0.0000 C   0  0  0  0  0  0  0  0  0  0  0  0
    8.0943  -12.1040    0.0000 C   0  0  0  0  0  0  0  0  0  0  0  0
    8.4830  -12.1796    0.0000 C   0  0  0  0  0  0  0  0  0  0  0  0
    8.7428  -11.8807    0.0000 C   0  0  2  0  0  0  0  0  0  0  0  0
    8.6139  -11.5063    0.0000 C   0  0  0  0  0  0  0  0  0  0  0  0
    8.2252  -11.4307    0.0000 C   0  0  0  0  0  0  0  0  0  0  0  0
    7.9264  -11.1709    0.0000 C   0  0  0  0  0  0  0  0  0  0  0  0
    8.3008  -11.0420    0.0000 C   0  0  0  0  0  0  0  0  0  0  0  0
    7.8345  -12.4028    0.0000 C   0  0  0  0  0  0  0  0  0  0  0  0
    9.1316  -11.9563    0.0000 O   0  0  0  0  0  0  0  0  0  0  0  0
    9.1413  -12.3628    0.0000 C   0  0  0  0  0  0  0  0  0  0  0  0
    9.4839  -12.5614    0.0000 C   0  0  0  0  0  0  0  0  0  0  0  0
    9.4833  -12.9574    0.0000 C   0  0  0  0  0  0  0  0  0  0  0  0
    9.8259  -13.1559    0.0000 C   0  0  0  0  0  0  0  0  0  0  0  0
    9.8253  -13.5519    0.0000 C   0  0  0  0  0  0  0  0  0  0  0  0
   10.1679  -13.7505    0.0000 C   0  0  0  0  0  0  0  0  0  0  0  0
   10.1673  -14.1465    0.0000 C   0  0  0  0  0  0  0  0  0  0  0  0
   10.5099  -14.3450    0.0000 C   0  0  0  0  0  0  0  0  0  0  0  0
   10.5093  -14.7410    0.0000 C   0  0  0  0  0  0  0  0  0  0  0  0
   10.8519  -14.9396    0.0000 C   0  0  0  0  0  0  0  0  0  0  0  0
   10.8513  -15.3356    0.0000 C   0  0  0  0  0  0  0  0  0  0  0  0
   11.1939  -15.5341    0.0000 C   0  0  0  0  0  0  0  0  0  0  0  0
   11.1933  -15.9301    0.0000 C   0  0  0  0  0  0  0  0  0  0  0  0
   11.5359  -16.1287    0.0000 C   0  0  0  0  0  0  0  0  0  0  0  0
   11.5353  -16.5247    0.0000 C   0  0  0  0  0  0  0  0  0  0  0  0
   11.8779  -16.7232    0.0000 C   0  0  0  0  0  0  0  0  0  0  0  0
    8.7981  -12.5603    0.0000 O   0  0  0  0  0  0  0  0  0  0  0  0
    6.2185   -4.6556    0.0000 C   0  0  0  0  0  0  0  0  0  0  0  0
    5.8664   -4.4743    0.0000 C   0  0  0  0  0  0  0  0  0  0  0  0
    5.8474   -4.0788    0.0000 C   0  0  0  0  0  0  0  0  0  0  0  0
    5.4953   -3.8975    0.0000 C   0  0  0  0  0  0  0  0  0  0  0  0
    5.4763   -3.5019    0.0000 C   0  0  0  0  0  0  0  0  0  0  0  0
    5.1242   -3.3207    0.0000 C   0  0  0  0  0  0  0  0  0  0  0  0
    5.1052   -2.9251    0.0000 C   0  0  0  0  0  0  0  0  0  0  0  0
    4.7531   -2.7438    0.0000 C   0  0  0  0  0  0  0  0  0  0  0  0
    4.7341   -2.3483    0.0000 C   0  0  0  0  0  0  0  0  0  0  0  0
    4.3820   -2.1670    0.0000 C   0  0  0  0  0  0  0  0  0  0  0  0
    4.3630   -1.7715    0.0000 C   0  0  0  0  0  0  0  0  0  0  0  0
    4.0109   -1.5902    0.0000 C   0  0  0  0  0  0  0  0  0  0  0  0
    3.9919   -1.1946    0.0000 C   0  0  0  0  0  0  0  0  0  0  0  0
    3.6398   -1.0134    0.0000 C   0  0  0  0  0  0  0  0  0  0  0  0
    3.6207   -0.6178    0.0000 C   0  0  0  0  0  0  0  0  0  0  0  0
    3.2687   -0.4365    0.0000 C   0  0  0  0  0  0  0  0  0  0  0  0
    6.5515   -4.4413    0.0000 O   0  0  0  0  0  0  0  0  0  0  0  0
  1  2  1  0  0  0  0
  2  3  1  0  0  0  0
  3  4  2  0  0  0  0
  4  5  1  0  0  0  0
  5  6  1  0  0  0  0
  1  6  1  0  0  0  0
  1  7  1  1  0  0  0
  5  8  1  0  0  0  0
  5  9  1  0  0  0  0
  3 10  1  0  0  0  0
 11 12  2  0  0  0  0
 12 13  1  0  0  0  0
 13 14  2  0  0  0  0
 14 15  1  0  0  0  0
 15 16  2  0  0  0  0
 16 17  1  0  0  0  0
 17 18  2  0  0  0  0
 18 19  1  0  0  0  0
 19 20  2  0  0  0  0
 20 21  1  0  0  0  0
 21 22  2  0  0  0  0
 22 23  1  0  0  0  0
 23 24  2  0  0  0  0
 24 25  1  0  0  0  0
 25 26  2  0  0  0  0
 26 27  1  0  0  0  0
 27 28  2  0  0  0  0
 26 29  1  0  0  0  0
 22 30  1  0  0  0  0
 17 31  1  0  0  0  0
 13 32  1  0  0  0  0
 33 34  2  0  0  0  0
 34 35  1  0  0  0  0
 35 36  1  0  0  0  0
 36 37  1  0  0  0  0
 37 38  1  0  0  0  0
 33 38  1  0  0  0  0
 38 39  1  0  0  0  0
 38 40  1  0  0  0  0
 34 41  1  0  0  0  0
 36 42  1  6  0  0  0
 28 33  1  0  0  0  0
  4 11  1  0  0  0  0
 43 44  1  0  0  0  0
 44 45  1  0  0  0  0
 45 46  1  0  0  0  0
 46 47  1  0  0  0  0
 47 48  1  0  0  0  0
 48 49  1  0  0  0  0
 49 50  1  0  0  0  0
 50 51  1  0  0  0  0
 51 52  1  0  0  0  0
 52 53  1  0  0  0  0
 53 54  1  0  0  0  0
 54 55  1  0  0  0  0
 55 56  1  0  0  0  0
 56 57  1  0  0  0  0
 57 58  1  0  0  0  0
 43 59  2  0  0  0  0
 60 61  1  0  0  0  0
 61 62  1  0  0  0  0
 62 63  1  0  0  0  0
 63 64  1  0  0  0  0
 64 65  1  0  0  0  0
 65 66  1  0  0  0  0
 66 67  1  0  0  0  0
 67 68  1  0  0  0  0
 68 69  1  0  0  0  0
 69 70  1  0  0  0  0
 70 71  1  0  0  0  0
 71 72  1  0  0  0  0
 72 73  1  0  0  0  0
 73 74  1  0  0  0  0
 74 75  1  0  0  0  0
 60 76  2  0  0  0  0
 43 42  1  0  0  0  0
 60  7  1  0  0  0  0
M  END
>  <cdx:fragmentId>
25

$$$$
