99617.cdx
  Mrv1902 05222410182D          

 74 75  0  0  0  0            999 V2000
    2.0622   -9.4217    0.0000 C   0  0  2  0  0  0  0  0  0  0  0  0
    2.0622   -8.9267    0.0000 C   0  0  0  0  0  0  0  0  0  0  0  0
    2.4909   -8.6792    0.0000 C   0  0  0  0  0  0  0  0  0  0  0  0
    2.9196   -8.9267    0.0000 C   0  0  0  0  0  0  0  0  0  0  0  0
    2.9196   -9.4217    0.0000 C   0  0  0  0  0  0  0  0  0  0  0  0
    2.4909   -9.6692    0.0000 C   0  0  0  0  0  0  0  0  0  0  0  0
    1.6335   -9.6692    0.0000 O   0  0  0  0  0  0  0  0  0  0  0  0
    3.4146   -9.4217    0.0000 C   0  0  0  0  0  0  0  0  0  0  0  0
    3.1671   -9.8504    0.0000 C   0  0  0  0  0  0  0  0  0  0  0  0
    2.4909   -8.1842    0.0000 C   0  0  0  0  0  0  0  0  0  0  0  0
    3.3482   -8.6792    0.0000 C   0  0  0  0  0  0  0  0  0  0  0  0
    3.7769   -8.9267    0.0000 C   0  0  0  0  0  0  0  0  0  0  0  0
    4.2056   -8.6792    0.0000 C   0  0  0  0  0  0  0  0  0  0  0  0
    4.6343   -8.9267    0.0000 C   0  0  0  0  0  0  0  0  0  0  0  0
    5.0630   -8.6792    0.0000 C   0  0  0  0  0  0  0  0  0  0  0  0
    5.4917   -8.9267    0.0000 C   0  0  0  0  0  0  0  0  0  0  0  0
    5.9203   -8.6792    0.0000 C   0  0  0  0  0  0  0  0  0  0  0  0
    6.3490   -8.9267    0.0000 C   0  0  0  0  0  0  0  0  0  0  0  0
    6.7777   -8.6792    0.0000 C   0  0  0  0  0  0  0  0  0  0  0  0
    7.2064   -8.9267    0.0000 C   0  0  0  0  0  0  0  0  0  0  0  0
    7.6351   -8.6792    0.0000 C   0  0  0  0  0  0  0  0  0  0  0  0
    8.0638   -8.9267    0.0000 C   0  0  0  0  0  0  0  0  0  0  0  0
    8.4924   -8.6792    0.0000 C   0  0  0  0  0  0  0  0  0  0  0  0
    8.9211   -8.9267    0.0000 C   0  0  0  0  0  0  0  0  0  0  0  0
    9.3498   -8.6792    0.0000 C   0  0  0  0  0  0  0  0  0  0  0  0
    9.7785   -8.9267    0.0000 C   0  0  0  0  0  0  0  0  0  0  0  0
   10.2072   -8.6792    0.0000 C   0  0  0  0  0  0  0  0  0  0  0  0
   10.6358   -8.9267    0.0000 C   0  0  0  0  0  0  0  0  0  0  0  0
    9.7785   -9.4217    0.0000 C   0  0  0  0  0  0  0  0  0  0  0  0
    8.0638   -9.4217    0.0000 C   0  0  0  0  0  0  0  0  0  0  0  0
    5.9203   -8.1842    0.0000 C   0  0  0  0  0  0  0  0  0  0  0  0
    4.2056   -8.1842    0.0000 C   0  0  0  0  0  0  0  0  0  0  0  0
   11.0645   -8.6792    0.0000 C   0  0  1  0  0  0  0  0  0  0  0  0
   11.4932   -8.9267    0.0000 C   0  0  0  0  0  0  0  0  0  0  0  0
   11.9219   -8.6792    0.0000 C   0  0  0  0  0  0  0  0  0  0  0  0
   11.9219   -8.1842    0.0000 C   0  0  1  0  0  0  0  0  0  0  0  0
   11.4932   -7.9367    0.0000 C   0  0  0  0  0  0  0  0  0  0  0  0
   11.0645   -8.1842    0.0000 C   0  0  0  0  0  0  0  0  0  0  0  0
   10.5695   -8.1842    0.0000 C   0  0  0  0  0  0  0  0  0  0  0  0
   10.8170   -7.7555    0.0000 C   0  0  0  0  0  0  0  0  0  0  0  0
   11.4932   -9.4217    0.0000 C   0  0  0  0  0  0  0  0  0  0  0  0
   12.3506   -7.9367    0.0000 O   0  0  0  0  0  0  0  0  0  0  0  0
   12.5972   -7.5127    0.0000 C   0  0  0  0  0  0  0  0  0  0  0  0
   12.3550   -7.0810    0.0000 C   0  0  0  0  0  0  0  0  0  0  0  0
   12.6078   -6.6554    0.0000 C   0  0  0  0  0  0  0  0  0  0  0  0
   12.3657   -6.2237    0.0000 C   0  0  0  0  0  0  0  0  0  0  0  0
   12.6185   -5.7981    0.0000 C   0  0  0  0  0  0  0  0  0  0  0  0
   12.3763   -5.3664    0.0000 C   0  0  0  0  0  0  0  0  0  0  0  0
   12.6291   -4.9408    0.0000 C   0  0  0  0  0  0  0  0  0  0  0  0
   12.3869   -4.5091    0.0000 C   0  0  0  0  0  0  0  0  0  0  0  0
   12.6397   -4.0835    0.0000 C   0  0  0  0  0  0  0  0  0  0  0  0
   12.6459   -3.5885    0.0000 C   0  0  0  0  0  0  0  0  0  0  0  0
   12.4037   -3.1568    0.0000 C   0  0  0  0  0  0  0  0  0  0  0  0
   12.6565   -2.7312    0.0000 C   0  0  0  0  0  0  0  0  0  0  0  0
   12.4143   -2.2995    0.0000 C   0  0  0  0  0  0  0  0  0  0  0  0
   12.6671   -1.8739    0.0000 C   0  0  0  0  0  0  0  0  0  0  0  0
   12.4250   -1.4422    0.0000 C   0  0  0  0  0  0  0  0  0  0  0  0
   12.6778   -1.0166    0.0000 C   0  0  0  0  0  0  0  0  0  0  0  0
   13.0922   -7.5188    0.0000 O   0  0  0  0  0  0  0  0  0  0  0  0
    1.3749  -10.1103    0.0000 C   0  0  0  0  0  0  0  0  0  0  0  0
    1.6223  -10.5391    0.0000 C   0  0  0  0  0  0  0  0  0  0  0  0
    1.3747  -10.9677    0.0000 C   0  0  0  0  0  0  0  0  0  0  0  0
    1.6220  -11.3965    0.0000 C   0  0  0  0  0  0  0  0  0  0  0  0
    1.3744  -11.8251    0.0000 C   0  0  0  0  0  0  0  0  0  0  0  0
    1.6218  -12.2538    0.0000 C   0  0  0  0  0  0  0  0  0  0  0  0
    1.3742  -12.6824    0.0000 C   0  0  0  0  0  0  0  0  0  0  0  0
    1.6216  -13.1112    0.0000 C   0  0  0  0  0  0  0  0  0  0  0  0
    1.3740  -13.5398    0.0000 C   0  0  0  0  0  0  0  0  0  0  0  0
    1.6213  -13.9685    0.0000 C   0  0  0  0  0  0  0  0  0  0  0  0
    1.3737  -14.3972    0.0000 C   0  0  0  0  0  0  0  0  0  0  0  0
    1.6211  -14.8259    0.0000 C   0  0  0  0  0  0  0  0  0  0  0  0
    1.3735  -15.2545    0.0000 C   0  0  0  0  0  0  0  0  0  0  0  0
    1.6209  -15.6833    0.0000 C   0  0  0  0  0  0  0  0  0  0  0  0
    0.8799  -10.1102    0.0000 O   0  0  0  0  0  0  0  0  0  0  0  0
  1  2  1  0  0  0  0
  2  3  1  0  0  0  0
  3  4  2  0  0  0  0
  4  5  1  0  0  0  0
  5  6  1  0  0  0  0
  1  6  1  0  0  0  0
  1  7  1  6  0  0  0
  5  8  1  0  0  0  0
  5  9  1  0  0  0  0
  3 10  1  0  0  0  0
 11 12  2  0  0  0  0
 12 13  1  0  0  0  0
 13 14  2  0  0  0  0
 14 15  1  0  0  0  0
 15 16  2  0  0  0  0
 16 17  1  0  0  0  0
 17 18  2  0  0  0  0
 18 19  1  0  0  0  0
 19 20  2  0  0  0  0
 20 21  1  0  0  0  0
 21 22  2  0  0  0  0
 22 23  1  0  0  0  0
 23 24  2  0  0  0  0
 24 25  1  0  0  0  0
 25 26  2  0  0  0  0
 26 27  1  0  0  0  0
 27 28  2  0  0  0  0
 26 29  1  0  0  0  0
 22 30  1  0  0  0  0
 17 31  1  0  0  0  0
 13 32  1  0  0  0  0
 33 34  1  0  0  0  0
 34 35  2  0  0  0  0
 35 36  1  0  0  0  0
 36 37  1  0  0  0  0
 37 38  1  0  0  0  0
 33 38  1  0  0  0  0
 38 39  1  0  0  0  0
 38 40  1  0  0  0  0
 34 41  1  0  0  0  0
 36 42  1  1  0  0  0
 33 28  1  6  0  0  0
  4 11  1  0  0  0  0
 43 44  1  0  0  0  0
 44 45  1  0  0  0  0
 45 46  1  0  0  0  0
 46 47  1  0  0  0  0
 47 48  1  0  0  0  0
 48 49  1  0  0  0  0
 49 50  1  0  0  0  0
 50 51  1  0  0  0  0
 51 52  2  0  0  0  0
 52 53  1  0  0  0  0
 53 54  1  0  0  0  0
 54 55  1  0  0  0  0
 55 56  1  0  0  0  0
 56 57  1  0  0  0  0
 57 58  1  0  0  0  0
 43 59  2  0  0  0  0
 60 61  1  0  0  0  0
 61 62  1  0  0  0  0
 62 63  1  0  0  0  0
 63 64  1  0  0  0  0
 64 65  1  0  0  0  0
 65 66  1  0  0  0  0
 66 67  1  0  0  0  0
 67 68  1  0  0  0  0
 68 69  1  0  0  0  0
 69 70  1  0  0  0  0
 70 71  1  0  0  0  0
 71 72  1  0  0  0  0
 72 73  1  0  0  0  0
 60 74  2  0  0  0  0
 60  7  1  0  0  0  0
 43 42  1  0  0  0  0
M  END
>  <cdx:fragmentId>
25

$$$$
