99619.cdx
  Mrv1902 05222410272D          

 79 87  0  0  0  0            999 V2000
    7.4174   -9.4627    0.0000 C   0  0  2  0  0  0  0  0  0  0  0  0
    7.4174  -10.2877    0.0000 C   0  0  1  0  0  0  0  0  0  0  0  0
    8.1319  -10.7002    0.0000 C   0  0  1  0  0  0  0  0  0  0  0  0
    8.8463  -10.2877    0.0000 C   0  0  1  0  0  0  0  0  0  0  0  0
    8.8463   -9.4627    0.0000 C   0  0  2  0  0  0  0  0  0  0  0  0
    8.1319   -9.0502    0.0000 C   0  0  0  0  0  0  0  0  0  0  0  0
    9.5608  -10.7002    0.0000 C   0  0  0  0  0  0  0  0  0  0  0  0
   10.2753  -10.2877    0.0000 C   0  0  0  0  0  0  0  0  0  0  0  0
   10.2753   -9.4627    0.0000 C   0  0  2  0  0  0  0  0  0  0  0  0
    9.5608   -9.0502    0.0000 C   0  0  2  0  0  0  0  0  0  0  0  0
   10.9898   -9.0502    0.0000 C   0  0  1  0  0  0  0  0  0  0  0  0
   10.9898   -8.2252    0.0000 C   0  0  0  0  0  0  0  0  0  0  0  0
   10.2753   -7.8127    0.0000 C   0  0  0  0  0  0  0  0  0  0  0  0
    9.5608   -8.2252    0.0000 C   0  0  0  0  0  0  0  0  0  0  0  0
   11.7042   -9.4627    0.0000 C   0  0  0  0  0  0  0  0  0  0  0  0
   12.4187   -9.0502    0.0000 C   0  0  2  0  0  0  0  0  0  0  0  0
   12.4187   -8.2252    0.0000 C   0  0  2  0  0  0  0  0  0  0  0  0
   11.7042   -7.8127    0.0000 C   0  0  1  0  0  0  0  0  0  0  0  0
   13.1332   -7.8127    0.0000 C   0  0  0  0  0  0  0  0  0  0  0  0
   13.1332   -6.9877    0.0000 C   0  0  0  0  0  0  0  0  0  0  0  0
   12.4187   -6.5752    0.0000 C   0  0  0  0  0  0  0  0  0  0  0  0
   11.7042   -6.9877    0.0000 C   0  0  0  0  0  0  0  0  0  0  0  0
   13.8476   -8.2252    0.0000 O   0  0  0  0  0  0  0  0  0  0  0  0
   14.5816   -8.6221    0.0000 C   0  0  2  0  0  0  0  0  0  0  0  0
   14.5876   -9.4470    0.0000 O   0  0  0  0  0  0  0  0  0  0  0  0
   15.3051   -9.8543    0.0000 C   0  0  1  0  0  0  0  0  0  0  0  0
   16.0165   -9.4366    0.0000 C   0  0  1  0  0  0  0  0  0  0  0  0
    6.7029   -9.0502    0.0000 O   0  0  0  0  0  0  0  0  0  0  0  0
    6.7029  -10.7002    0.0000 O   0  0  0  0  0  0  0  0  0  0  0  0
    7.7194  -11.4147    0.0000 C   0  0  0  0  0  0  0  0  0  0  0  0
    8.8463   -8.6377    0.0000 C   0  0  0  0  0  0  0  0  0  0  0  0
   10.2753   -8.6377    0.0000 C   0  0  0  0  0  0  0  0  0  0  0  0
   12.0062   -5.8607    0.0000 C   0  0  0  0  0  0  0  0  0  0  0  0
   12.8312   -5.8607    0.0000 C   0  0  0  0  0  0  0  0  0  0  0  0
    8.5444  -11.4147    0.0000 C   0  0  0  0  0  0  0  0  0  0  0  0
    8.0769  -12.2259    0.0000 O   0  0  0  0  0  0  0  0  0  0  0  0
   10.9898   -9.8752    0.0000 C   0  0  0  0  0  0  0  0  0  0  0  0
   12.4187   -9.8752    0.0000 O   0  0  0  0  0  0  0  0  0  0  0  0
    5.2635   -9.0609    0.0000 C   0  0  2  0  0  0  0  0  0  0  0  0
    4.5494   -9.4740    0.0000 C   0  0  2  0  0  0  0  0  0  0  0  0
    4.5501  -10.2990    0.0000 C   0  0  1  0  0  0  0  0  0  0  0  0
    5.2649  -10.7109    0.0000 C   0  0  2  0  0  0  0  0  0  0  0  0
    5.9790  -10.2978    0.0000 C   0  0  1  0  0  0  0  0  0  0  0  0
    5.9783   -9.4728    0.0000 O   0  0  0  0  0  0  0  0  0  0  0  0
    5.2629   -8.2359    0.0000 C   0  0  0  0  0  0  0  0  0  0  0  0
    3.8360  -10.7121    0.0000 O   0  0  0  0  0  0  0  0  0  0  0  0
    3.8346   -9.0621    0.0000 O   0  0  0  0  0  0  0  0  0  0  0  0
    5.2656  -11.5359    0.0000 O   0  0  0  0  0  0  0  0  0  0  0  0
    4.5480   -7.8240    0.0000 O   0  0  0  0  0  0  0  0  0  0  0  0
   16.0105   -8.6116    0.0000 C   0  0  1  0  0  0  0  0  0  0  0  0
   15.2930   -8.2043    0.0000 C   0  0  1  0  0  0  0  0  0  0  0  0
   18.1392   -5.7195    0.0000 O   0  0  0  0  0  0  0  0  0  0  0  0
   18.8551   -6.1296    0.0000 C   0  0  1  0  0  0  0  0  0  0  0  0
   19.5681   -5.7146    0.0000 C   0  0  2  0  0  0  0  0  0  0  0  0
   19.5653   -4.8896    0.0000 O   0  0  0  0  0  0  0  0  0  0  0  0
   18.8579   -6.9546    0.0000 O   0  0  0  0  0  0  0  0  0  0  0  0
   19.5738   -7.3646    0.0000 C   0  0  0  0  0  0  0  0  0  0  0  0
   20.2868   -6.9497    0.0000 C   0  0  2  0  0  0  0  0  0  0  0  0
   20.2840   -6.1247    0.0000 C   0  0  2  0  0  0  0  0  0  0  0  0
   18.1448   -7.3695    0.0000 C   0  0  0  0  0  0  0  0  0  0  0  0
   16.7074   -4.8995    0.0000 O   0  0  0  0  0  0  0  0  0  0  0  0
   15.3112  -10.6793    0.0000 C   0  0  0  0  0  0  0  0  0  0  0  0
   16.7340   -9.8438    0.0000 O   0  0  0  0  0  0  0  0  0  0  0  0
   16.7219   -8.1939    0.0000 O   0  0  0  0  0  0  0  0  0  0  0  0
   20.9970   -5.7097    0.0000 O   0  0  0  0  0  0  0  0  0  0  0  0
   21.0027   -7.3597    0.0000 O   0  0  0  0  0  0  0  0  0  0  0  0
   16.7159   -7.3744    0.0000 O   0  0  0  0  0  0  0  0  0  0  0  0
   17.4290   -6.9595    0.0000 C   0  0  2  0  0  0  0  0  0  0  0  0
   17.4261   -6.1345    0.0000 C   0  0  1  0  0  0  0  0  0  0  0  0
   16.7102   -5.7244    0.0000 C   0  0  2  0  0  0  0  0  0  0  0  0
   15.9972   -6.1394    0.0000 C   0  0  2  0  0  0  0  0  0  0  0  0
   16.0000   -6.9644    0.0000 C   0  0  2  0  0  0  0  0  0  0  0  0
   15.2870   -7.3794    0.0000 O   0  0  0  0  0  0  0  0  0  0  0  0
   13.1332   -9.4627    0.0000 O   0  0  0  0  0  0  0  0  0  0  0  0
   13.1332   -8.6377    0.0000 C   0  0  0  0  0  0  0  0  0  0  0  0
   15.2813   -5.7294    0.0000 O   0  0  0  0  0  0  0  0  0  0  0  0
    8.8463  -11.1127    0.0000 H   0  0  0  0  0  0  0  0  0  0  0  0
    9.5608   -9.8752    0.0000 H   0  0  0  0  0  0  0  0  0  0  0  0
   11.7042   -8.6377    0.0000 H   0  0  0  0  0  0  0  0  0  0  0  0
  1  2  1  0  0  0  0
  2  3  1  0  0  0  0
  3  4  1  0  0  0  0
  4  5  1  0  0  0  0
  5  6  1  0  0  0  0
  6  1  1  0  0  0  0
  4  7  1  0  0  0  0
  7  8  1  0  0  0  0
  8  9  1  0  0  0  0
  9 10  1  0  0  0  0
 10  5  1  0  0  0  0
  9 11  1  0  0  0  0
 11 12  1  0  0  0  0
 12 13  2  0  0  0  0
 13 14  1  0  0  0  0
 14 10  1  0  0  0  0
 11 15  1  0  0  0  0
 15 16  1  0  0  0  0
 16 17  1  0  0  0  0
 17 18  1  0  0  0  0
 18 12  1  0  0  0  0
 17 19  1  0  0  0  0
 19 20  1  0  0  0  0
 20 21  1  0  0  0  0
 21 22  1  0  0  0  0
 22 18  1  0  0  0  0
 17 75  1  1  0  0  0
  1 28  1  1  0  0  0
  2 29  1  1  0  0  0
  3 30  1  1  0  0  0
  5 31  1  1  0  0  0
  9 32  1  1  0  0  0
 21 33  1  0  0  0  0
 21 34  1  0  0  0  0
  3 35  1  6  0  0  0
 35 36  1  0  0  0  0
 11 37  1  6  0  0  0
 16 38  1  6  0  0  0
 39 40  1  0  0  0  0
 40 41  1  0  0  0  0
 41 42  1  0  0  0  0
 42 43  1  0  0  0  0
 43 44  1  0  0  0  0
 44 39  1  0  0  0  0
 39 45  1  1  0  0  0
 41 46  1  1  0  0  0
 40 47  1  6  0  0  0
 42 48  1  6  0  0  0
 45 49  1  0  0  0  0
 43 29  1  1  0  0  0
 24 25  1  0  0  0  0
 25 26  1  0  0  0  0
 26 27  1  0  0  0  0
 27 50  1  0  0  0  0
 50 51  1  0  0  0  0
 51 24  1  0  0  0  0
 51 73  1  6  0  0  0
 53 52  1  1  0  0  0
 53 54  1  0  0  0  0
 54 55  1  6  0  0  0
 53 56  1  0  0  0  0
 56 57  1  0  0  0  0
 68 60  1  6  0  0  0
 70 61  1  6  0  0  0
 57 58  1  0  0  0  0
 58 59  1  0  0  0  0
 59 54  1  0  0  0  0
 26 62  1  1  0  0  0
 27 63  1  1  0  0  0
 50 64  1  1  0  0  0
 59 65  1  1  0  0  0
 69 52  1  1  0  0  0
 58 66  1  6  0  0  0
 67 72  1  0  0  0  0
 68 67  1  0  0  0  0
 69 68  1  0  0  0  0
 70 69  1  0  0  0  0
 71 70  1  0  0  0  0
 72 71  1  0  0  0  0
 72 73  1  1  0  0  0
 75 74  2  0  0  0  0
 75 23  1  0  0  0  0
 24 23  1  1  0  0  0
 71 76  1  6  0  0  0
  4 77  1  6  0  0  0
 10 78  1  6  0  0  0
 18 79  1  1  0  0  0
M  END
>  <cdx:fragmentId>
5

$$$$
