99618.cdx
  Mrv1902 05222410272D          

 78 86  0  0  0  0            999 V2000
    9.3751  -12.2865    0.0000 C   0  0  2  0  0  0  0  0  0  0  0  0
    8.8442  -12.9179    0.0000 C   0  0  0  0  0  0  0  0  0  0  0  0
    9.9048  -12.9190    0.0000 C   0  0  0  0  0  0  0  0  0  0  0  0
   19.3823   -7.3459    0.0000 O   0  0  0  0  0  0  0  0  0  0  0  0
   18.6675   -7.7577    0.0000 C   0  0  2  0  0  0  0  0  0  0  0  0
   17.9542   -6.5196    0.0000 O   0  0  0  0  0  0  0  0  0  0  0  0
   17.9534   -7.3446    0.0000 C   0  0  1  0  0  0  0  0  0  0  0  0
   16.5245   -7.3432    0.0000 O   0  0  0  0  0  0  0  0  0  0  0  0
   17.2386   -7.7564    0.0000 C   0  0  1  0  0  0  0  0  0  0  0  0
   19.8324   -9.1838    0.0000 O   0  0  0  0  0  0  0  0  0  0  0  0
   19.4192   -9.8979    0.0000 C   0  0  1  0  0  0  0  0  0  0  0  0
   20.7912  -10.4260    0.0000 O   0  0  0  0  0  0  0  0  0  0  0  0
   19.9706  -10.5116    0.0000 C   0  0  2  0  0  0  0  0  0  0  0  0
   20.7128  -12.0666    0.0000 O   0  0  0  0  0  0  0  0  0  0  0  0
   19.8923  -11.9796    0.0000 C   0  0  0  0  0  0  0  0  0  0  0  0
   19.5575  -11.2256    0.0000 C   0  0  1  0  0  0  0  0  0  0  0  0
   18.7507  -11.0533    0.0000 O   0  0  0  0  0  0  0  0  0  0  0  0
   18.6652  -10.2328    0.0000 C   0  0  1  0  0  0  0  0  0  0  0  0
   17.9511   -9.8196    0.0000 O   0  0  0  0  0  0  0  0  0  0  0  0
   17.2362  -10.2314    0.0000 C   0  0  1  0  0  0  0  0  0  0  0  0
   17.9495  -11.4696    0.0000 O   0  0  0  0  0  0  0  0  0  0  0  0
   17.2355  -11.0564    0.0000 C   0  0  1  0  0  0  0  0  0  0  0  0
   16.5198  -12.2932    0.0000 C   0  0  0  0  0  0  0  0  0  0  0  0
   16.5206  -11.4683    0.0000 C   0  0  1  0  0  0  0  0  0  0  0  0
   15.8065  -11.0551    0.0000 O   0  0  0  0  0  0  0  0  0  0  0  0
   13.6635  -10.6405    0.0000 C   0  0  0  0  0  0  0  0  0  0  0  0
   12.9486  -11.0523    0.0000 C   0  0  0  0  0  0  0  0  0  0  0  0
   12.2549  -11.4790    0.0000 C   0  0  0  0  0  0  0  0  0  0  0  0
   12.2346  -10.6392    0.0000 C   0  0  1  0  0  0  0  0  0  0  0  0
   11.5463  -10.3298    0.0000 C   0  0  0  0  0  0  0  0  0  0  0  0
   11.5197  -11.0511    0.0000 C   0  0  2  0  0  0  0  0  0  0  0  0
   11.5189  -11.8760    0.0000 C   0  0  0  0  0  0  0  0  0  0  0  0
   10.8040  -12.2878    0.0000 C   0  0  0  0  0  0  0  0  0  0  0  0
   10.0900  -11.8747    0.0000 C   0  0  2  0  0  0  0  0  0  0  0  0
    9.4923  -13.6334    0.0000 O   0  0  0  0  0  0  0  0  0  0  0  0
    6.5165  -13.1088    0.0000 O   0  0  0  0  0  0  0  0  0  0  0  0
    6.5172  -12.2838    0.0000 C   0  0  2  0  0  0  0  0  0  0  0  0
    5.0883  -12.2825    0.0000 O   0  0  0  0  0  0  0  0  0  0  0  0
    5.8032  -11.8707    0.0000 C   0  0  1  0  0  0  0  0  0  0  0  0
    5.0898  -10.6325    0.0000 O   0  0  0  0  0  0  0  0  0  0  0  0
    5.8039  -11.0457    0.0000 C   0  0  2  0  0  0  0  0  0  0  0  0
    5.8055   -9.3956    0.0000 O   0  0  0  0  0  0  0  0  0  0  0  0
    6.5195   -9.8088    0.0000 C   0  0  0  0  0  0  0  0  0  0  0  0
    6.5188  -10.6338    0.0000 C   0  0  1  0  0  0  0  0  0  0  0  0
    7.2329  -11.0470    0.0000 O   0  0  0  0  0  0  0  0  0  0  0  0
    7.2321  -11.8720    0.0000 C   0  0  1  0  0  0  0  0  0  0  0  0
    7.9462  -12.2852    0.0000 O   0  0  0  0  0  0  0  0  0  0  0  0
    8.6610  -11.8734    0.0000 C   0  0  1  0  0  0  0  0  0  0  0  0
    7.9477  -10.6352    0.0000 O   0  0  0  0  0  0  0  0  0  0  0  0
    8.6618  -11.0483    0.0000 C   0  0  1  0  0  0  0  0  0  0  0  0
    9.3766  -10.6365    0.0000 C   0  0  0  0  0  0  0  0  0  0  0  0
   10.0915  -10.2247    0.0000 C   0  0  0  0  0  0  0  0  0  0  0  0
   10.0907  -11.0497    0.0000 C   0  0  1  0  0  0  0  0  0  0  0  0
   10.8056  -10.6379    0.0000 C   0  0  1  0  0  0  0  0  0  0  0  0
   10.8064   -9.8128    0.0000 C   0  0  0  0  0  0  0  0  0  0  0  0
   11.5212   -9.4010    0.0000 C   0  0  0  0  0  0  0  0  0  0  0  0
   12.2353   -9.8142    0.0000 C   0  0  0  0  0  0  0  0  0  0  0  0
   12.9502   -9.4024    0.0000 C   0  0  2  0  0  0  0  0  0  0  0  0
   12.9509   -8.5774    0.0000 C   0  0  0  0  0  0  0  0  0  0  0  0
   13.1362   -7.5331    0.0000 C   0  0  0  0  0  0  0  0  0  0  0  0
   14.1968   -7.5341    0.0000 C   0  0  0  0  0  0  0  0  0  0  0  0
   13.6658   -8.1655    0.0000 C   0  0  0  0  0  0  0  0  0  0  0  0
   14.3799   -8.5787    0.0000 C   0  0  0  0  0  0  0  0  0  0  0  0
   14.3791   -9.4037    0.0000 C   0  0  0  0  0  0  0  0  0  0  0  0
   13.6643   -9.8156    0.0000 C   0  0  2  0  0  0  0  0  0  0  0  0
   14.3776  -11.0537    0.0000 O   0  0  0  0  0  0  0  0  0  0  0  0
   14.3783  -10.2287    0.0000 C   0  0  0  0  0  0  0  0  0  0  0  0
   15.0932   -9.8169    0.0000 O   0  0  0  0  0  0  0  0  0  0  0  0
   15.8073  -10.2301    0.0000 C   0  0  1  0  0  0  0  0  0  0  0  0
   16.5221   -9.8182    0.0000 C   0  0  2  0  0  0  0  0  0  0  0  0
   16.5229   -8.9932    0.0000 O   0  0  0  0  0  0  0  0  0  0  0  0
   17.2378   -8.5814    0.0000 C   0  0  2  0  0  0  0  0  0  0  0  0
   17.9519   -8.9946    0.0000 O   0  0  0  0  0  0  0  0  0  0  0  0
   18.6667   -8.5827    0.0000 C   0  0  1  0  0  0  0  0  0  0  0  0
   19.3808   -8.9959    0.0000 C   0  0  0  0  0  0  0  0  0  0  0  0
   10.0892  -12.6997    0.0000 H   0  0  0  0  0  0  0  0  0  0  0  0
   10.8048  -11.4629    0.0000 H   0  0  0  0  0  0  0  0  0  0  0  0
   12.9494  -10.2274    0.0000 H   0  0  0  0  0  0  0  0  0  0  0  0
  5  4  1  1  0  0  0
  5 74  1  0  0  0  0
  7  5  1  0  0  0  0
  7  6  1  6  0  0  0
  9  7  1  0  0  0  0
  9  8  1  6  0  0  0
  9 72  1  0  0  0  0
 11 10  1  1  0  0  0
 11 18  1  0  0  0  0
 13 11  1  0  0  0  0
 13 12  1  6  0  0  0
 13 16  1  0  0  0  0
 15 14  1  0  0  0  0
 16 15  1  1  0  0  0
 16 17  1  0  0  0  0
 18 17  1  0  0  0  0
 18 19  1  1  0  0  0
 20 19  1  1  0  0  0
 70 20  1  0  0  0  0
 20 22  1  0  0  0  0
 22 21  1  1  0  0  0
 22 24  1  0  0  0  0
 24 23  1  1  0  0  0
 24 25  1  0  0  0  0
 69 25  1  0  0  0  0
 65 26  1  0  0  0  0
 27 26  1  0  0  0  0
 29 27  1  0  0  0  0
 29 28  1  6  0  0  0
 29 57  1  0  0  0  0
 31 29  1  0  0  0  0
 31 30  1  1  0  0  0
 54 31  1  0  0  0  0
 31 32  1  0  0  0  0
 33 32  1  0  0  0  0
 34 33  1  0  0  0  0
 53 34  1  0  0  0  0
 34  1  1  0  0  0  0
  1 48  1  0  0  0  0
 37 36  1  6  0  0  0
 37 46  1  0  0  0  0
 39 37  1  0  0  0  0
 39 38  1  1  0  0  0
 41 39  1  0  0  0  0
 41 40  1  6  0  0  0
 41 44  1  0  0  0  0
 43 42  1  0  0  0  0
 44 43  1  1  0  0  0
 44 45  1  0  0  0  0
 46 45  1  0  0  0  0
 46 47  1  1  0  0  0
 48 47  1  1  0  0  0
 48 50  1  0  0  0  0
 50 49  1  1  0  0  0
 50 51  1  0  0  0  0
 53 51  1  0  0  0  0
 53 52  1  1  0  0  0
 54 53  1  0  0  0  0
 54 55  1  0  0  0  0
 56 55  1  0  0  0  0
 57 56  2  0  0  0  0
 58 57  1  0  0  0  0
 65 58  1  0  0  0  0
 58 59  1  0  0  0  0
 62 59  1  0  0  0  0
 62 60  1  0  0  0  0
 62 61  1  0  0  0  0
 63 62  1  0  0  0  0
 64 63  1  0  0  0  0
 65 64  1  0  0  0  0
 65 67  1  1  0  0  0
 67 66  2  0  0  0  0
 68 67  1  0  0  0  0
 69 68  1  1  0  0  0
 70 69  1  0  0  0  0
 70 71  1  6  0  0  0
 72 71  1  1  0  0  0
 72 73  1  0  0  0  0
 74 73  1  0  0  0  0
 74 75  1  6  0  0  0
  1  2  1  1  0  0  0
  1  3  1  6  0  0  0
  3 35  1  0  0  0  0
 34 76  1  6  0  0  0
 54 77  1  6  0  0  0
 58 78  1  1  0  0  0
M  END
>  <cdx:fragmentId>
1

$$$$
