99615.cdx
  Mrv1902 05222410192D          

 73 75  0  0  0  0            999 V2000
   11.6275   -7.4496    0.0000 C   0  0  2  0  0  0  0  0  0  0  0  0
   12.1225   -7.4496    0.0000 C   0  0  0  0  0  0  0  0  0  0  0  0
   12.3700   -7.8783    0.0000 C   0  0  2  0  0  0  0  0  0  0  0  0
   12.1225   -8.3070    0.0000 C   0  0  0  0  0  0  0  0  0  0  0  0
   11.6275   -8.3070    0.0000 C   0  0  0  0  0  0  0  0  0  0  0  0
   11.3800   -7.8783    0.0000 C   0  0  2  0  0  0  0  0  0  0  0  0
   11.1325   -7.4496    0.0000 O   0  0  0  0  0  0  0  0  0  0  0  0
   12.8650   -7.8783    0.0000 O   0  0  0  0  0  0  0  0  0  0  0  0
   11.6275   -8.8020    0.0000 C   0  0  0  0  0  0  0  0  0  0  0  0
   11.1988   -8.5545    0.0000 C   0  0  0  0  0  0  0  0  0  0  0  0
   11.6275   -6.9546    0.0000 C   0  0  0  0  0  0  0  0  0  0  0  0
   10.9513   -8.1258    0.0000 C   0  0  0  0  0  0  0  0  0  0  0  0
   10.5226   -7.8783    0.0000 C   0  0  0  0  0  0  0  0  0  0  0  0
   10.0939   -8.1258    0.0000 C   0  0  0  0  0  0  0  0  0  0  0  0
    9.6653   -7.8783    0.0000 C   0  0  0  0  0  0  0  0  0  0  0  0
    9.2366   -8.1258    0.0000 C   0  0  0  0  0  0  0  0  0  0  0  0
    8.8079   -7.8783    0.0000 C   0  0  0  0  0  0  0  0  0  0  0  0
    8.3792   -8.1258    0.0000 C   0  0  0  0  0  0  0  0  0  0  0  0
    7.9505   -7.8783    0.0000 C   0  0  0  0  0  0  0  0  0  0  0  0
    7.5218   -8.1258    0.0000 C   0  0  0  0  0  0  0  0  0  0  0  0
    7.0932   -7.8783    0.0000 C   0  0  0  0  0  0  0  0  0  0  0  0
    6.6645   -8.1258    0.0000 C   0  0  0  0  0  0  0  0  0  0  0  0
    6.2358   -7.8783    0.0000 C   0  0  0  0  0  0  0  0  0  0  0  0
    5.8071   -8.1258    0.0000 C   0  0  0  0  0  0  0  0  0  0  0  0
    5.3784   -7.8783    0.0000 C   0  0  0  0  0  0  0  0  0  0  0  0
    4.9497   -8.1258    0.0000 C   0  0  0  0  0  0  0  0  0  0  0  0
    4.5211   -7.8783    0.0000 C   0  0  0  0  0  0  0  0  0  0  0  0
    4.0924   -8.1258    0.0000 C   0  0  0  0  0  0  0  0  0  0  0  0
    3.6637   -7.8783    0.0000 C   0  0  0  0  0  0  0  0  0  0  0  0
    4.5211   -7.3833    0.0000 C   0  0  0  0  0  0  0  0  0  0  0  0
    6.2358   -7.3833    0.0000 C   0  0  0  0  0  0  0  0  0  0  0  0
    8.3792   -8.6208    0.0000 C   0  0  0  0  0  0  0  0  0  0  0  0
   10.0939   -8.6208    0.0000 C   0  0  0  0  0  0  0  0  0  0  0  0
    3.2350   -8.1258    0.0000 C   0  0  0  0  0  0  0  0  0  0  0  0
    2.8063   -7.8783    0.0000 C   0  0  0  0  0  0  0  0  0  0  0  0
    2.3777   -8.1258    0.0000 C   0  0  0  0  0  0  0  0  0  0  0  0
    2.3777   -8.6208    0.0000 C   0  0  2  0  0  0  0  0  0  0  0  0
    2.8063   -8.8683    0.0000 C   0  0  0  0  0  0  0  0  0  0  0  0
    3.2350   -8.6208    0.0000 C   0  0  0  0  0  0  0  0  0  0  0  0
    3.7300   -8.6208    0.0000 C   0  0  0  0  0  0  0  0  0  0  0  0
    3.4825   -9.0495    0.0000 C   0  0  0  0  0  0  0  0  0  0  0  0
    2.8063   -7.3833    0.0000 C   0  0  0  0  0  0  0  0  0  0  0  0
    1.9490   -8.8683    0.0000 O   0  0  0  0  0  0  0  0  0  0  0  0
   13.1251   -7.4605    0.0000 C   0  0  0  0  0  0  0  0  0  0  0  0
   12.8739   -7.0340    0.0000 C   0  0  0  0  0  0  0  0  0  0  0  0
   13.1176   -6.6032    0.0000 C   0  0  0  0  0  0  0  0  0  0  0  0
   12.8665   -6.1766    0.0000 C   0  0  0  0  0  0  0  0  0  0  0  0
   13.1102   -5.7458    0.0000 C   0  0  0  0  0  0  0  0  0  0  0  0
   12.8590   -5.3193    0.0000 C   0  0  0  0  0  0  0  0  0  0  0  0
   13.1028   -4.8885    0.0000 C   0  0  0  0  0  0  0  0  0  0  0  0
   12.8516   -4.4620    0.0000 C   0  0  0  0  0  0  0  0  0  0  0  0
   13.0954   -4.0312    0.0000 C   0  0  0  0  0  0  0  0  0  0  0  0
   12.8442   -3.6046    0.0000 C   0  0  0  0  0  0  0  0  0  0  0  0
   13.0880   -3.1738    0.0000 C   0  0  0  0  0  0  0  0  0  0  0  0
   12.8368   -2.7473    0.0000 C   0  0  0  0  0  0  0  0  0  0  0  0
   13.0806   -2.3165    0.0000 C   0  0  0  0  0  0  0  0  0  0  0  0
   12.8294   -1.8900    0.0000 C   0  0  0  0  0  0  0  0  0  0  0  0
   13.6200   -7.4562    0.0000 O   0  0  0  0  0  0  0  0  0  0  0  0
    1.6787   -9.3125    0.0000 C   0  0  0  0  0  0  0  0  0  0  0  0
    1.9251   -9.7418    0.0000 C   0  0  0  0  0  0  0  0  0  0  0  0
    1.6766  -10.1699    0.0000 C   0  0  0  0  0  0  0  0  0  0  0  0
    1.9230  -10.5992    0.0000 C   0  0  0  0  0  0  0  0  0  0  0  0
    1.6745  -11.0272    0.0000 C   0  0  0  0  0  0  0  0  0  0  0  0
    1.9209  -11.4565    0.0000 C   0  0  0  0  0  0  0  0  0  0  0  0
    1.6724  -11.8846    0.0000 C   0  0  0  0  0  0  0  0  0  0  0  0
    1.9188  -12.3139    0.0000 C   0  0  0  0  0  0  0  0  0  0  0  0
    1.6703  -12.7420    0.0000 C   0  0  0  0  0  0  0  0  0  0  0  0
    1.9167  -13.1712    0.0000 C   0  0  0  0  0  0  0  0  0  0  0  0
    1.6682  -13.5993    0.0000 C   0  0  0  0  0  0  0  0  0  0  0  0
    1.9146  -14.0286    0.0000 C   0  0  0  0  0  0  0  0  0  0  0  0
    1.6661  -14.4567    0.0000 C   0  0  0  0  0  0  0  0  0  0  0  0
    1.9125  -14.8860    0.0000 C   0  0  0  0  0  0  0  0  0  0  0  0
    1.1837   -9.3113    0.0000 O   0  0  0  0  0  0  0  0  0  0  0  0
  1  2  1  0  0  0  0
  2  3  1  0  0  0  0
  3  4  1  0  0  0  0
  4  5  1  0  0  0  0
  5  6  1  0  0  0  0
  6  7  1  0  0  0  0
  1  7  1  0  0  0  0
  1  6  1  0  0  0  0
  3  8  1  1  0  0  0
  5  9  1  0  0  0  0
  5 10  1  0  0  0  0
  1 11  1  1  0  0  0
 12 13  2  0  0  0  0
 13 14  1  0  0  0  0
 14 15  2  0  0  0  0
 15 16  1  0  0  0  0
 16 17  2  0  0  0  0
 17 18  1  0  0  0  0
 18 19  2  0  0  0  0
 19 20  1  0  0  0  0
 20 21  2  0  0  0  0
 21 22  1  0  0  0  0
 22 23  2  0  0  0  0
 23 24  1  0  0  0  0
 24 25  2  0  0  0  0
 25 26  1  0  0  0  0
 26 27  2  0  0  0  0
 27 28  1  0  0  0  0
 28 29  2  0  0  0  0
 27 30  1  0  0  0  0
 23 31  1  0  0  0  0
 18 32  1  0  0  0  0
 14 33  1  0  0  0  0
 34 35  2  0  0  0  0
 35 36  1  0  0  0  0
 36 37  1  0  0  0  0
 37 38  1  0  0  0  0
 38 39  1  0  0  0  0
 34 39  1  0  0  0  0
 39 40  1  0  0  0  0
 39 41  1  0  0  0  0
 35 42  1  0  0  0  0
 37 43  1  6  0  0  0
 29 34  1  0  0  0  0
  6 12  1  1  0  0  0
 44 45  1  0  0  0  0
 45 46  1  0  0  0  0
 46 47  1  0  0  0  0
 47 48  1  0  0  0  0
 48 49  1  0  0  0  0
 49 50  1  0  0  0  0
 50 51  1  0  0  0  0
 51 52  1  0  0  0  0
 52 53  1  0  0  0  0
 53 54  1  0  0  0  0
 54 55  1  0  0  0  0
 55 56  1  0  0  0  0
 56 57  1  0  0  0  0
 44 58  2  0  0  0  0
 59 60  1  0  0  0  0
 60 61  1  0  0  0  0
 61 62  1  0  0  0  0
 62 63  1  0  0  0  0
 63 64  1  0  0  0  0
 64 65  1  0  0  0  0
 65 66  1  0  0  0  0
 66 67  1  0  0  0  0
 67 68  1  0  0  0  0
 68 69  1  0  0  0  0
 69 70  1  0  0  0  0
 70 71  1  0  0  0  0
 71 72  1  0  0  0  0
 59 73  2  0  0  0  0
 59 43  1  0  0  0  0
 44  8  1  0  0  0  0
M  END
>  <cdx:fragmentId>
27

$$$$
