99616.cdx
  Mrv1902 05222410182D          

 78 80  0  0  0  0            999 V2000
    1.6406   -7.4967    0.0000 C   0  0  0  0  0  0  0  0  0  0  0  0
    1.8881   -7.9253    0.0000 C   0  0  1  0  0  0  0  0  0  0  0  0
    2.3831   -7.9253    0.0000 C   0  0  0  0  0  0  0  0  0  0  0  0
    2.6306   -7.4967    0.0000 C   0  0  2  0  0  0  0  0  0  0  0  0
    2.3831   -7.0680    0.0000 C   0  0  2  0  0  0  0  0  0  0  0  0
    1.8881   -7.0680    0.0000 C   0  0  0  0  0  0  0  0  0  0  0  0
    1.6406   -8.3540    0.0000 O   0  0  0  0  0  0  0  0  0  0  0  0
    2.8781   -7.0680    0.0000 O   0  0  0  0  0  0  0  0  0  0  0  0
    3.1256   -7.4967    0.0000 C   0  0  0  0  0  0  0  0  0  0  0  0
    2.6306   -6.6393    0.0000 C   0  0  0  0  0  0  0  0  0  0  0  0
    1.4595   -6.8205    0.0000 C   0  0  0  0  0  0  0  0  0  0  0  0
    1.8881   -6.5730    0.0000 C   0  0  0  0  0  0  0  0  0  0  0  0
    3.1256   -6.6393    0.0000 C   0  0  0  0  0  0  0  0  0  0  0  0
    3.3731   -6.2106    0.0000 C   0  0  0  0  0  0  0  0  0  0  0  0
    3.8681   -6.2106    0.0000 C   0  0  0  0  0  0  0  0  0  0  0  0
    3.1256   -5.7819    0.0000 C   0  0  0  0  0  0  0  0  0  0  0  0
    4.1156   -6.6393    0.0000 C   0  0  0  0  0  0  0  0  0  0  0  0
    4.6106   -6.6393    0.0000 C   0  0  0  0  0  0  0  0  0  0  0  0
    4.8581   -7.0680    0.0000 C   0  0  0  0  0  0  0  0  0  0  0  0
    5.3531   -7.0680    0.0000 C   0  0  0  0  0  0  0  0  0  0  0  0
    4.6106   -7.4967    0.0000 C   0  0  0  0  0  0  0  0  0  0  0  0
    5.6006   -7.4967    0.0000 C   0  0  0  0  0  0  0  0  0  0  0  0
    6.0956   -7.4967    0.0000 C   0  0  0  0  0  0  0  0  0  0  0  0
    6.3431   -7.9253    0.0000 C   0  0  0  0  0  0  0  0  0  0  0  0
    6.8381   -7.9253    0.0000 C   0  0  0  0  0  0  0  0  0  0  0  0
    7.0856   -8.3540    0.0000 C   0  0  0  0  0  0  0  0  0  0  0  0
    7.0856   -7.4967    0.0000 C   0  0  0  0  0  0  0  0  0  0  0  0
    7.5806   -8.3540    0.0000 C   0  0  0  0  0  0  0  0  0  0  0  0
    7.8281   -8.7827    0.0000 C   0  0  0  0  0  0  0  0  0  0  0  0
    8.3231   -8.7827    0.0000 C   0  0  0  0  0  0  0  0  0  0  0  0
    8.5706   -9.2114    0.0000 C   0  0  0  0  0  0  0  0  0  0  0  0
    8.5706   -8.3540    0.0000 C   0  0  0  0  0  0  0  0  0  0  0  0
    9.0656   -9.2114    0.0000 C   0  0  0  0  0  0  0  0  0  0  0  0
    9.5606   -9.2114    0.0000 C   0  0  0  0  0  0  0  0  0  0  0  0
    9.8081   -9.6401    0.0000 C   0  0  2  0  0  0  0  0  0  0  0  0
   10.3031   -9.6401    0.0000 C   0  0  0  0  0  0  0  0  0  0  0  0
   10.5506   -9.2114    0.0000 C   0  0  2  0  0  0  0  0  0  0  0  0
   10.3031   -8.7827    0.0000 C   0  0  0  0  0  0  0  0  0  0  0  0
    9.8081   -8.7827    0.0000 C   0  0  0  0  0  0  0  0  0  0  0  0
    9.3300   -9.7682    0.0000 C   0  0  0  0  0  0  0  0  0  0  0  0
    9.8081  -10.1351    0.0000 O   0  0  0  0  0  0  0  0  0  0  0  0
    9.3300   -8.6546    0.0000 C   0  0  0  0  0  0  0  0  0  0  0  0
    9.6800   -8.3046    0.0000 C   0  0  0  0  0  0  0  0  0  0  0  0
   11.0456   -9.2114    0.0000 O   0  0  0  0  0  0  0  0  0  0  0  0
   11.3854   -9.0012    0.0000 C   0  0  0  0  0  0  0  0  0  0  0  0
   11.3736   -8.6053    0.0000 C   0  0  0  0  0  0  0  0  0  0  0  0
   11.7106   -8.3973    0.0000 C   0  0  0  0  0  0  0  0  0  0  0  0
   11.6989   -8.0015    0.0000 C   0  0  0  0  0  0  0  0  0  0  0  0
   12.0358   -7.7934    0.0000 C   0  0  0  0  0  0  0  0  0  0  0  0
   12.0241   -7.3976    0.0000 C   0  0  0  0  0  0  0  0  0  0  0  0
   12.3610   -7.1895    0.0000 C   0  0  0  0  0  0  0  0  0  0  0  0
   12.3493   -6.7937    0.0000 C   0  0  0  0  0  0  0  0  0  0  0  0
   12.6863   -6.5856    0.0000 C   0  0  0  0  0  0  0  0  0  0  0  0
   12.6745   -6.1898    0.0000 C   0  0  0  0  0  0  0  0  0  0  0  0
   13.0115   -5.9817    0.0000 C   0  0  0  0  0  0  0  0  0  0  0  0
   12.9998   -5.5859    0.0000 C   0  0  0  0  0  0  0  0  0  0  0  0
   13.3367   -5.3779    0.0000 C   0  0  0  0  0  0  0  0  0  0  0  0
   13.3250   -4.9820    0.0000 C   0  0  0  0  0  0  0  0  0  0  0  0
   13.6619   -4.7740    0.0000 C   0  0  0  0  0  0  0  0  0  0  0  0
   13.6502   -4.3781    0.0000 C   0  0  0  0  0  0  0  0  0  0  0  0
   11.7340   -9.1889    0.0000 O   0  0  0  0  0  0  0  0  0  0  0  0
    1.7881   -8.7183    0.0000 C   0  0  0  0  0  0  0  0  0  0  0  0
    1.5419   -9.0285    0.0000 C   0  0  0  0  0  0  0  0  0  0  0  0
    1.6875   -9.3968    0.0000 C   0  0  0  0  0  0  0  0  0  0  0  0
    1.4414   -9.7070    0.0000 C   0  0  0  0  0  0  0  0  0  0  0  0
    1.5869  -10.0752    0.0000 C   0  0  0  0  0  0  0  0  0  0  0  0
    1.3408  -10.3854    0.0000 C   0  0  0  0  0  0  0  0  0  0  0  0
    1.4864  -10.7537    0.0000 C   0  0  0  0  0  0  0  0  0  0  0  0
    1.2402  -11.0639    0.0000 C   0  0  0  0  0  0  0  0  0  0  0  0
    1.3858  -11.4322    0.0000 C   0  0  0  0  0  0  0  0  0  0  0  0
    1.1397  -11.7424    0.0000 C   0  0  0  0  0  0  0  0  0  0  0  0
    1.2853  -12.1107    0.0000 C   0  0  0  0  0  0  0  0  0  0  0  0
    1.0391  -12.4209    0.0000 C   0  0  0  0  0  0  0  0  0  0  0  0
    1.1847  -12.7892    0.0000 C   0  0  0  0  0  0  0  0  0  0  0  0
    0.9386  -13.0994    0.0000 C   0  0  0  0  0  0  0  0  0  0  0  0
    1.0841  -13.4676    0.0000 C   0  0  0  0  0  0  0  0  0  0  0  0
    0.8380  -13.7779    0.0000 C   0  0  0  0  0  0  0  0  0  0  0  0
    2.1798   -8.7763    0.0000 O   0  0  0  0  0  0  0  0  0  0  0  0
  1  2  1  0  0  0  0
  2  3  1  0  0  0  0
  3  4  1  0  0  0  0
  4  5  1  0  0  0  0
  5  6  1  0  0  0  0
  6  1  1  0  0  0  0
  2  7  1  1  0  0  0
  4  8  1  0  0  0  0
  8  5  1  0  0  0  0
  4  9  1  1  0  0  0
  5 10  1  1  0  0  0
  6 11  1  0  0  0  0
  6 12  1  0  0  0  0
 10 13  2  0  0  0  0
 13 14  1  0  0  0  0
 14 15  2  0  0  0  0
 14 16  1  0  0  0  0
 15 17  1  0  0  0  0
 17 18  2  0  0  0  0
 18 19  1  0  0  0  0
 19 20  2  0  0  0  0
 19 21  1  0  0  0  0
 20 22  1  0  0  0  0
 22 23  2  0  0  0  0
 23 24  1  0  0  0  0
 24 25  2  0  0  0  0
 25 26  1  0  0  0  0
 25 27  1  0  0  0  0
 26 28  2  0  0  0  0
 28 29  1  0  0  0  0
 29 30  2  0  0  0  0
 30 31  1  0  0  0  0
 30 32  1  0  0  0  0
 31 33  2  0  0  0  0
 33 34  2  0  0  0  0
 34 35  1  0  0  0  0
 35 36  1  0  0  0  0
 36 37  1  0  0  0  0
 37 38  1  0  0  0  0
 38 39  1  0  0  0  0
 39 34  1  0  0  0  0
 35 40  1  0  0  0  0
 35 41  1  1  0  0  0
 39 42  1  0  0  0  0
 39 43  1  0  0  0  0
 37 44  1  6  0  0  0
 45 46  1  0  0  0  0
 46 47  1  0  0  0  0
 47 48  1  0  0  0  0
 48 49  1  0  0  0  0
 49 50  1  0  0  0  0
 50 51  1  0  0  0  0
 51 52  1  0  0  0  0
 52 53  1  0  0  0  0
 53 54  1  0  0  0  0
 54 55  1  0  0  0  0
 55 56  1  0  0  0  0
 56 57  1  0  0  0  0
 57 58  1  0  0  0  0
 58 59  1  0  0  0  0
 59 60  1  0  0  0  0
 45 61  2  0  0  0  0
 62 63  1  0  0  0  0
 63 64  1  0  0  0  0
 64 65  1  0  0  0  0
 65 66  1  0  0  0  0
 66 67  1  0  0  0  0
 67 68  1  0  0  0  0
 68 69  1  0  0  0  0
 69 70  1  0  0  0  0
 70 71  1  0  0  0  0
 71 72  1  0  0  0  0
 72 73  1  0  0  0  0
 73 74  1  0  0  0  0
 74 75  1  0  0  0  0
 75 76  1  0  0  0  0
 76 77  1  0  0  0  0
 62 78  2  0  0  0  0
 62  7  1  0  0  0  0
 45 44  1  0  0  0  0
M  END
>  <cdx:fragmentId>
3

$$$$
