99624.cdx
  Mrv1902 05222410272D          

 24 28  0  0  0  0            999 V2000
    5.3290   -8.6803    0.0000 C   0  0  0  0  0  0  0  0  0  0  0  0
    4.6145   -9.0928    0.0000 C   0  0  0  0  0  0  0  0  0  0  0  0
    4.6145   -9.9178    0.0000 C   0  0  0  0  0  0  0  0  0  0  0  0
    5.3290  -10.3303    0.0000 C   0  0  0  0  0  0  0  0  0  0  0  0
    6.0435   -9.9178    0.0000 C   0  0  0  0  0  0  0  0  0  0  0  0
    6.7580  -10.3303    0.0000 C   0  0  0  0  0  0  0  0  0  0  0  0
    7.4724   -9.9178    0.0000 C   0  0  0  0  0  0  0  0  0  0  0  0
    7.4724   -9.0928    0.0000 C   0  0  0  0  0  0  0  0  0  0  0  0
    8.1869   -8.6803    0.0000 C   0  0  0  0  0  0  0  0  0  0  0  0
    8.9715   -8.9352    0.0000 C   0  0  0  0  0  0  0  0  0  0  0  0
    9.4564   -8.2678    0.0000 C   0  0  0  0  0  0  0  0  0  0  0  0
    8.9715   -7.6003    0.0000 C   0  0  0  0  0  0  0  0  0  0  0  0
    8.1869   -7.8553    0.0000 C   0  0  0  0  0  0  0  0  0  0  0  0
    7.4724   -7.4428    0.0000 C   0  0  0  0  0  0  0  0  0  0  0  0
    6.7580   -7.8553    0.0000 C   0  0  0  0  0  0  0  0  0  0  0  0
    6.7580   -8.6803    0.0000 C   0  0  0  0  0  0  0  0  0  0  0  0
    6.0435   -9.0928    0.0000 C   0  0  0  0  0  0  0  0  0  0  0  0
    8.5970   -6.8653    0.0000 O   0  0  0  0  0  0  0  0  0  0  0  0
    9.7066   -7.2258    0.0000 C   0  0  0  0  0  0  0  0  0  0  0  0
    9.3321   -6.4907    0.0000 C   0  0  0  0  0  0  0  0  0  0  0  0
    3.9001  -10.3303    0.0000 O   0  0  0  0  0  0  0  0  0  0  0  0
   10.4912   -7.4807    0.0000 O   0  0  0  0  0  0  0  0  0  0  0  0
    8.1869   -7.0303    0.0000 C   0  0  0  0  0  0  0  0  0  0  0  0
    6.0435   -8.2678    0.0000 C   0  0  0  0  0  0  0  0  0  0  0  0
  1  2  2  0  0  0  0
  2  3  1  0  0  0  0
  3  4  1  0  0  0  0
  4  5  2  0  0  0  0
  5  6  1  0  0  0  0
  6  7  1  0  0  0  0
  7  8  1  0  0  0  0
  8  9  1  0  0  0  0
  9 10  1  0  0  0  0
 10 11  1  0  0  0  0
 11 12  1  0  0  0  0
 12 13  1  0  0  0  0
  9 13  1  0  0  0  0
 13 14  1  0  0  0  0
 14 15  1  0  0  0  0
 15 16  1  0  0  0  0
  8 16  1  0  0  0  0
 16 17  1  0  0  0  0
  5 17  1  0  0  0  0
  1 17  1  0  0  0  0
 19 20  1  0  0  0  0
 18 20  1  0  0  0  0
 18 12  1  0  0  0  0
 19 12  1  0  0  0  0
  3 21  2  0  0  0  0
 19 22  2  0  0  0  0
 13 23  1  0  0  0  0
 17 24  1  0  0  0  0
M  END
>  <cdx:fragmentId>
5

$$$$
