99628.cdx
  Mrv1902 05222410192D          

 43 48  0  0  0  0            999 V2000
   10.1755   -6.6550    0.0000 C   0  0  2  0  0  0  0  0  0  0  0  0
   10.1755   -7.4800    0.0000 C   0  0  0  0  0  0  0  0  0  0  0  0
   10.8900   -7.8925    0.0000 C   0  0  1  0  0  0  0  0  0  0  0  0
   11.6045   -7.4800    0.0000 C   0  0  1  0  0  0  0  0  0  0  0  0
   11.6045   -6.6550    0.0000 C   0  0  0  0  0  0  0  0  0  0  0  0
   10.8900   -6.2425    0.0000 C   0  0  1  0  0  0  0  0  0  0  0  0
   10.8900   -5.4175    0.0000 C   0  0  0  0  0  0  0  0  0  0  0  0
   12.1550   -6.2700    0.0000 O   0  0  0  0  0  0  0  0  0  0  0  0
   10.8900   -7.0675    0.0000 C   0  0  2  0  0  0  0  0  0  0  0  0
    9.4611   -6.2425    0.0000 O   0  0  0  0  0  0  0  0  0  0  0  0
   11.6045   -8.3050    0.0000 O   0  0  0  0  0  0  0  0  0  0  0  0
   10.2850   -7.8375    0.0000 C   0  0  0  0  0  0  0  0  0  0  0  0
   10.2850   -8.6625    0.0000 O   0  0  0  0  0  0  0  0  0  0  0  0
   12.1550   -7.0675    0.0000 C   0  0  0  0  0  0  0  0  0  0  0  0
    9.5665   -9.0680    0.0000 C   0  0  0  0  0  0  0  0  0  0  0  0
    8.8561   -8.6485    0.0000 O   0  0  0  0  0  0  0  0  0  0  0  0
    9.5584   -9.8929    0.0000 C   0  0  0  0  0  0  0  0  0  0  0  0
   10.2688  -10.3124    0.0000 C   0  0  0  0  0  0  0  0  0  0  0  0
   10.2607  -11.1374    0.0000 C   0  0  0  0  0  0  0  0  0  0  0  0
    9.5423  -11.5429    0.0000 C   0  0  0  0  0  0  0  0  0  0  0  0
    8.8319  -11.1234    0.0000 C   0  0  0  0  0  0  0  0  0  0  0  0
    8.8400  -10.2984    0.0000 C   0  0  0  0  0  0  0  0  0  0  0  0
    8.7466   -6.6550    0.0000 C   0  0  2  0  0  0  0  0  0  0  0  0
    8.0321   -6.2425    0.0000 O   0  0  0  0  0  0  0  0  0  0  0  0
    7.3176   -6.6550    0.0000 C   0  0  1  0  0  0  0  0  0  0  0  0
    7.3176   -7.4800    0.0000 C   0  0  2  0  0  0  0  0  0  0  0  0
    8.0321   -7.8925    0.0000 C   0  0  1  0  0  0  0  0  0  0  0  0
    8.7466   -7.4800    0.0000 C   0  0  1  0  0  0  0  0  0  0  0  0
    6.6032   -6.2425    0.0000 C   0  0  0  0  0  0  0  0  0  0  0  0
    8.0321   -8.7175    0.0000 O   0  0  0  0  0  0  0  0  0  0  0  0
    9.4611   -7.8925    0.0000 O   0  0  0  0  0  0  0  0  0  0  0  0
    6.6032   -7.8925    0.0000 O   0  0  0  0  0  0  0  0  0  0  0  0
    5.8887   -6.6550    0.0000 O   0  0  0  0  0  0  0  0  0  0  0  0
   10.8900   -8.7175    0.0000 H   0  0  0  0  0  0  0  0  0  0  0  0
   12.7384   -7.6509    0.0000 O   0  0  0  0  0  0  0  0  0  0  0  0
    5.1742   -6.2425    0.0000 C   0  0  0  0  0  0  0  0  0  0  0  0
    4.4598   -6.6550    0.0000 C   0  0  0  0  0  0  0  0  0  0  0  0
    5.1742   -5.4175    0.0000 O   0  0  0  0  0  0  0  0  0  0  0  0
    3.7453   -6.2425    0.0000 C   0  0  0  0  0  0  0  0  0  0  0  0
    3.0308   -6.6550    0.0000 C   0  0  0  0  0  0  0  0  0  0  0  0
    3.0308   -7.4800    0.0000 C   0  0  0  0  0  0  0  0  0  0  0  0
    3.7453   -7.8925    0.0000 C   0  0  0  0  0  0  0  0  0  0  0  0
    4.4598   -7.4800    0.0000 C   0  0  0  0  0  0  0  0  0  0  0  0
  1  2  1  0  0  0  0
  2  3  1  0  0  0  0
  3  4  1  0  0  0  0
  4  5  1  0  0  0  0
  5  6  1  0  0  0  0
  6  1  1  0  0  0  0
  6  7  1  6  0  0  0
  6  8  1  0  0  0  0
  3  9  1  0  0  0  0
  1 10  1  1  0  0  0
  4 11  1  1  0  0  0
  9  1  1  0  0  0  0
  9 12  1  1  0  0  0
 12 13  1  0  0  0  0
  8 14  1  0  0  0  0
  9 14  1  0  0  0  0
 13 15  1  0  0  0  0
 15 16  2  0  0  0  0
 15 17  1  0  0  0  0
 17 18  2  0  0  0  0
 18 19  1  0  0  0  0
 19 20  2  0  0  0  0
 20 21  1  0  0  0  0
 21 22  2  0  0  0  0
 22 17  1  0  0  0  0
 23 10  1  1  0  0  0
 23 24  1  0  0  0  0
 24 25  1  0  0  0  0
 25 26  1  0  0  0  0
 26 27  1  0  0  0  0
 27 28  1  0  0  0  0
 28 23  1  0  0  0  0
 25 29  1  1  0  0  0
 27 30  1  1  0  0  0
 28 31  1  6  0  0  0
 26 32  1  6  0  0  0
 29 33  1  0  0  0  0
  3 34  1  1  0  0  0
 14 35  2  0  0  0  0
 33 36  1  0  0  0  0
 36 37  1  0  0  0  0
 36 38  2  0  0  0  0
 37 39  2  0  0  0  0
 39 40  1  0  0  0  0
 40 41  2  0  0  0  0
 41 42  1  0  0  0  0
 42 43  2  0  0  0  0
 43 37  1  0  0  0  0
M  END
>  <cdx:fragmentId>
157

$$$$
