99622.cdx
  Mrv1902 05222410262D          

 36 39  0  0  0  0            999 V2000
    4.3225   -8.8000    0.0000 O   0  0  0  0  0  0  0  0  0  0  0  0
    3.9282   -6.6454    0.0000 C   0  0  2  0  0  0  0  0  0  0  0  0
    3.1033   -6.6375    0.0000 C   0  0  2  0  0  0  0  0  0  0  0  0
    2.6840   -7.3480    0.0000 C   0  0  1  0  0  0  0  0  0  0  0  0
    3.0897   -8.0664    0.0000 C   0  0  2  0  0  0  0  0  0  0  0  0
    3.9146   -8.0743    0.0000 C   0  0  1  0  0  0  0  0  0  0  0  0
    4.3339   -7.3638    0.0000 O   0  0  0  0  0  0  0  0  0  0  0  0
    4.3475   -5.9349    0.0000 C   0  0  0  0  0  0  0  0  0  0  0  0
    1.8590   -7.3402    0.0000 O   0  0  0  0  0  0  0  0  0  0  0  0
    2.6976   -5.9192    0.0000 O   0  0  0  0  0  0  0  0  0  0  0  0
    2.6704   -8.7769    0.0000 O   0  0  0  0  0  0  0  0  0  0  0  0
    3.9418   -5.2165    0.0000 O   0  0  0  0  0  0  0  0  0  0  0  0
    4.2333  -10.2289    0.0000 C   0  0  0  0  0  0  0  0  0  0  0  0
    5.1475  -10.2289    0.0000 O   0  0  0  0  0  0  0  0  0  0  0  0
    6.3850   -8.0855    0.0000 C   0  0  0  0  0  0  0  0  0  0  0  0
    5.5600   -8.0855    0.0000 C   0  0  0  0  0  0  0  0  0  0  0  0
    5.1475   -8.8000    0.0000 C   0  0  0  0  0  0  0  0  0  0  0  0
    5.5600   -9.5145    0.0000 C   0  0  0  0  0  0  0  0  0  0  0  0
    6.3850   -9.5145    0.0000 C   0  0  0  0  0  0  0  0  0  0  0  0
    6.7975   -8.8000    0.0000 C   0  0  0  0  0  0  0  0  0  0  0  0
    8.4359   -6.7646    0.0000 O   0  0  0  0  0  0  0  0  0  0  0  0
    7.8525   -7.3479    0.0000 C   0  0  0  0  0  0  0  0  0  0  0  0
    9.6065  -10.4500    0.0000 O   0  0  0  0  0  0  0  0  0  0  0  0
   13.1789   -8.3875    0.0000 O   0  0  0  0  0  0  0  0  0  0  0  0
   12.4644   -7.9750    0.0000 C   0  0  0  0  0  0  0  0  0  0  0  0
   11.7500   -8.3875    0.0000 C   0  0  0  0  0  0  0  0  0  0  0  0
   11.0355   -7.9750    0.0000 C   0  0  0  0  0  0  0  0  0  0  0  0
    8.1075   -8.1326    0.0000 C   0  0  1  0  0  0  0  0  0  0  0  0
    7.6225   -8.8000    0.0000 C   0  0  1  0  0  0  0  0  0  0  0  0
    8.1075   -9.4674    0.0000 O   0  0  0  0  0  0  0  0  0  0  0  0
    9.6065   -7.9750    0.0000 C   0  0  0  0  0  0  0  0  0  0  0  0
    8.8921   -8.3875    0.0000 C   0  0  0  0  0  0  0  0  0  0  0  0
    8.8921   -9.2125    0.0000 C   0  0  0  0  0  0  0  0  0  0  0  0
    9.6065   -9.6250    0.0000 C   0  0  0  0  0  0  0  0  0  0  0  0
   10.3210   -9.2125    0.0000 C   0  0  0  0  0  0  0  0  0  0  0  0
   10.3210   -8.3875    0.0000 C   0  0  0  0  0  0  0  0  0  0  0  0
  2  3  1  0  0  0  0
  3  4  1  0  0  0  0
  4  5  1  0  0  0  0
  5  6  1  0  0  0  0
  6  7  1  0  0  0  0
  7  2  1  0  0  0  0
  2  8  1  1  0  0  0
  4  9  1  1  0  0  0
  3 10  1  6  0  0  0
  5 11  1  6  0  0  0
  8 12  1  0  0  0  0
 14 13  1  0  0  0  0
 18 14  1  0  0  0  0
 17  1  1  0  0  0  0
  6  1  1  1  0  0  0
 15 20  1  0  0  0  0
 16 15  2  0  0  0  0
 17 16  1  0  0  0  0
 18 17  2  0  0  0  0
 19 18  1  0  0  0  0
 20 19  2  0  0  0  0
 29 20  1  1  0  0  0
 22 21  1  0  0  0  0
 28 22  1  6  0  0  0
 34 23  1  0  0  0  0
 25 24  1  0  0  0  0
 26 25  1  0  0  0  0
 27 26  1  0  0  0  0
 36 27  1  0  0  0  0
 28 32  1  0  0  0  0
 29 28  1  0  0  0  0
 30 29  1  0  0  0  0
 33 30  1  0  0  0  0
 31 36  1  0  0  0  0
 32 31  2  0  0  0  0
 33 32  1  0  0  0  0
 34 33  2  0  0  0  0
 35 34  1  0  0  0  0
 36 35  2  0  0  0  0
M  END
>  <cdx:fragmentId>
5

$$$$
