99638.cdx
  Mrv1902 05222410192D          

 78 87  0  0  0  0            999 V2000
   14.3713   -9.3194    0.0000 C   0  0  1  0  0  0  0  0  0  0  0  0
   15.0827   -8.9018    0.0000 C   0  0  2  0  0  0  0  0  0  0  0  0
   15.8692   -9.1510    0.0000 C   0  0  0  0  0  0  0  0  0  0  0  0
   16.3493   -8.4801    0.0000 C   0  0  2  0  0  0  0  0  0  0  0  0
   17.1320   -8.2195    0.0000 O   0  0  0  0  0  0  0  0  0  0  0  0
   17.1261   -7.3945    0.0000 C   0  0  2  0  0  0  0  0  0  0  0  0
   16.3396   -7.1453    0.0000 C   0  0  2  0  0  0  0  0  0  0  0  0
   15.8595   -7.8162    0.0000 C   0  0  2  0  0  0  0  0  0  0  0  0
   15.0768   -8.0768    0.0000 C   0  0  1  0  0  0  0  0  0  0  0  0
   14.3594   -7.6694    0.0000 C   0  0  0  0  0  0  0  0  0  0  0  0
   13.6479   -8.0871    0.0000 C   0  0  0  0  0  0  0  0  0  0  0  0
   13.6538   -8.9121    0.0000 C   0  0  2  0  0  0  0  0  0  0  0  0
   12.9424   -9.3297    0.0000 C   0  0  1  0  0  0  0  0  0  0  0  0
   12.2249   -8.9224    0.0000 C   0  0  0  0  0  0  0  0  0  0  0  0
   11.5135   -9.3400    0.0000 C   0  0  0  0  0  0  0  0  0  0  0  0
   11.5194  -10.1650    0.0000 C   0  0  1  0  0  0  0  0  0  0  0  0
   12.2368  -10.5723    0.0000 C   0  0  0  0  0  0  0  0  0  0  0  0
   12.9483  -10.1547    0.0000 C   0  0  0  0  0  0  0  0  0  0  0  0
   13.6658  -10.5620    0.0000 C   0  0  0  0  0  0  0  0  0  0  0  0
   14.3772  -10.1444    0.0000 C   0  0  0  0  0  0  0  0  0  0  0  0
   17.0339   -6.5747    0.0000 O   0  0  0  0  0  0  0  0  0  0  0  0
   17.8822   -7.7246    0.0000 C   0  0  1  0  0  0  0  0  0  0  0  0
   18.5461   -7.2349    0.0000 C   0  0  0  0  0  0  0  0  0  0  0  0
   18.4539   -6.4151    0.0000 C   0  0  2  0  0  0  0  0  0  0  0  0
   17.6978   -6.0850    0.0000 C   0  0  0  0  0  0  0  0  0  0  0  0
   10.8079  -10.5827    0.0000 O   0  0  0  0  0  0  0  0  0  0  0  0
   12.9364   -8.5047    0.0000 C   0  0  0  0  0  0  0  0  0  0  0  0
   15.0768   -7.2518    0.0000 C   0  0  0  0  0  0  0  0  0  0  0  0
   16.0790   -6.3625    0.0000 C   0  0  0  0  0  0  0  0  0  0  0  0
   19.1178   -5.9253    0.0000 C   0  0  0  0  0  0  0  0  0  0  0  0
   14.3653   -8.4944    0.0000 H   0  0  0  0  0  0  0  0  0  0  0  0
   16.8390   -9.1440    0.0000 H   0  0  0  0  0  0  0  0  0  0  0  0
   15.4925   -7.0773    0.0000 O   0  0  0  0  0  0  0  0  0  0  0  0
   13.6598   -9.7370    0.0000 H   0  0  0  0  0  0  0  0  0  0  0  0
   10.0905  -10.1753    0.0000 C   0  0  2  0  0  0  0  0  0  0  0  0
   10.0816   -9.3504    0.0000 O   0  0  0  0  0  0  0  0  0  0  0  0
    9.3627   -8.9457    0.0000 C   0  0  1  0  0  0  0  0  0  0  0  0
    8.6527   -9.3504    0.0000 C   0  0  2  0  0  0  0  0  0  0  0  0
    8.6527  -10.1753    0.0000 C   0  0  1  0  0  0  0  0  0  0  0  0
    9.3627  -10.5800    0.0000 C   0  0  1  0  0  0  0  0  0  0  0  0
    9.3604   -8.1207    0.0000 C   0  0  0  0  0  0  0  0  0  0  0  0
    7.9394  -10.5898    0.0000 O   0  0  0  0  0  0  0  0  0  0  0  0
    9.3583  -11.4050    0.0000 O   0  0  0  0  0  0  0  0  0  0  0  0
    7.9394   -8.9359    0.0000 O   0  0  0  0  0  0  0  0  0  0  0  0
    8.6460   -7.7082    0.0000 O   0  0  0  0  0  0  0  0  0  0  0  0
    8.6460  -11.8213    0.0000 C   0  0  2  0  0  0  0  0  0  0  0  0
    7.9304  -11.4107    0.0000 O   0  0  0  0  0  0  0  0  0  0  0  0
    7.2170  -11.8251    0.0000 C   0  0  2  0  0  0  0  0  0  0  0  0
    7.2292  -12.6557    0.0000 C   0  0  1  0  0  0  0  0  0  0  0  0
    7.9479  -13.0606    0.0000 C   0  0  2  0  0  0  0  0  0  0  0  0
    8.6645  -12.6404    0.0000 C   0  0  1  0  0  0  0  0  0  0  0  0
    6.5199  -13.0771    0.0000 O   0  0  0  0  0  0  0  0  0  0  0  0
    6.4991  -11.4187    0.0000 C   0  0  0  0  0  0  0  0  0  0  0  0
    7.9551  -13.8855    0.0000 O   0  0  0  0  0  0  0  0  0  0  0  0
    9.3850  -13.0424    0.0000 O   0  0  0  0  0  0  0  0  0  0  0  0
   15.0887   -9.7267    0.0000 H   0  0  0  0  0  0  0  0  0  0  0  0
   17.9743   -8.5445    0.0000 O   0  0  0  0  0  0  0  0  0  0  0  0
   19.8739   -6.2554    0.0000 O   0  0  0  0  0  0  0  0  0  0  0  0
    7.1144   -8.9334    0.0000 C   0  0  2  0  0  0  0  0  0  0  0  0
    6.7060   -8.2165    0.0000 O   0  0  0  0  0  0  0  0  0  0  0  0
    5.8771   -8.2185    0.0000 C   0  0  2  0  0  0  0  0  0  0  0  0
    5.4644   -8.9328    0.0000 C   0  0  1  0  0  0  0  0  0  0  0  0
    5.8766   -9.6519    0.0000 C   0  0  2  0  0  0  0  0  0  0  0  0
    6.7016   -9.6477    0.0000 C   0  0  1  0  0  0  0  0  0  0  0  0
    5.4639   -7.5044    0.0000 C   0  0  0  0  0  0  0  0  0  0  0  0
    4.6394   -8.9313    0.0000 O   0  0  0  0  0  0  0  0  0  0  0  0
    5.4649  -10.3668    0.0000 O   0  0  0  0  0  0  0  0  0  0  0  0
    7.1158  -10.3612    0.0000 O   0  0  0  0  0  0  0  0  0  0  0  0
    3.9239   -9.3421    0.0000 C   0  0  2  0  0  0  0  0  0  0  0  0
    3.2108   -8.9273    0.0000 O   0  0  0  0  0  0  0  0  0  0  0  0
    2.4950   -9.3375    0.0000 C   0  0  2  0  0  0  0  0  0  0  0  0
    2.4955  -10.1644    0.0000 C   0  0  1  0  0  0  0  0  0  0  0  0
    3.2097  -10.5773    0.0000 C   0  0  2  0  0  0  0  0  0  0  0  0
    3.9266  -10.1653    0.0000 C   0  0  1  0  0  0  0  0  0  0  0  0
    1.7810  -10.5768    0.0000 O   0  0  0  0  0  0  0  0  0  0  0  0
    3.2086  -11.4023    0.0000 O   0  0  0  0  0  0  0  0  0  0  0  0
    1.7811   -8.9241    0.0000 C   0  0  0  0  0  0  0  0  0  0  0  0
    4.6413  -10.5773    0.0000 O   0  0  0  0  0  0  0  0  0  0  0  0
  1  2  1  0  0  0  0
  2  3  1  0  0  0  0
  3  4  1  0  0  0  0
  4  5  1  0  0  0  0
  6  5  1  6  0  0  0
  6  7  1  0  0  0  0
  7  8  1  0  0  0  0
  8  9  1  0  0  0  0
  9 10  1  0  0  0  0
 10 11  1  0  0  0  0
 11 12  1  0  0  0  0
 12 13  1  0  0  0  0
 13 14  1  0  0  0  0
 14 15  1  0  0  0  0
 15 16  1  0  0  0  0
 16 17  1  0  0  0  0
 17 18  1  0  0  0  0
 18 19  2  0  0  0  0
 19 20  1  0  0  0  0
  1 20  1  0  0  0  0
  1 12  1  0  0  0  0
 13 18  1  0  0  0  0
  2  9  1  0  0  0  0
  4  8  1  0  0  0  0
 22 23  1  0  0  0  0
 23 24  1  0  0  0  0
 24 25  1  0  0  0  0
 21 25  1  0  0  0  0
  6 21  1  0  0  0  0
  6 22  1  0  0  0  0
 16 26  1  1  0  0  0
 13 27  1  1  0  0  0
  9 28  1  1  0  0  0
  7 29  1  6  0  0  0
 24 30  1  6  0  0  0
  1 31  1  1  0  0  0
  4 32  1  6  0  0  0
  8 33  1  6  0  0  0
 12 34  1  6  0  0  0
 35 26  1  1  0  0  0
 35 36  1  0  0  0  0
 36 37  1  0  0  0  0
 37 38  1  0  0  0  0
 38 39  1  0  0  0  0
 39 40  1  0  0  0  0
 40 35  1  0  0  0  0
 37 41  1  1  0  0  0
 39 42  1  1  0  0  0
 40 43  1  6  0  0  0
 38 44  1  6  0  0  0
 41 45  1  0  0  0  0
 46 43  1  1  0  0  0
 46 47  1  0  0  0  0
 47 48  1  0  0  0  0
 48 49  1  0  0  0  0
 49 50  1  0  0  0  0
 50 51  1  0  0  0  0
 51 46  1  0  0  0  0
 49 52  1  1  0  0  0
 48 53  1  6  0  0  0
 50 54  1  6  0  0  0
 51 55  1  6  0  0  0
  2 56  1  6  0  0  0
 22 57  1  1  0  0  0
 30 58  1  0  0  0  0
 59 44  1  1  0  0  0
 59 60  1  0  0  0  0
 60 61  1  0  0  0  0
 61 62  1  0  0  0  0
 62 63  1  0  0  0  0
 63 64  1  0  0  0  0
 64 59  1  0  0  0  0
 61 65  1  6  0  0  0
 62 66  1  1  0  0  0
 63 67  1  6  0  0  0
 64 68  1  6  0  0  0
 69 66  1  1  0  0  0
 69 70  1  0  0  0  0
 70 71  1  0  0  0  0
 71 72  1  0  0  0  0
 72 73  1  0  0  0  0
 73 74  1  0  0  0  0
 74 69  1  0  0  0  0
 72 75  1  1  0  0  0
 73 76  1  6  0  0  0
 71 77  1  6  0  0  0
 74 78  1  6  0  0  0
M  END
>  <cdx:fragmentId>
5

$$$$
