11996452.cdx
  Mrv1902 05222410272D          

 20 22  0  0  0  0            999 V2000
    8.5430  -14.8857    0.0000 C   0  0  0  0  0  0  0  0  0  0  0  0
    9.0279  -14.2183    0.0000 C   0  0  0  0  0  0  0  0  0  0  0  0
    8.5430  -13.5508    0.0000 C   0  0  2  0  0  0  0  0  0  0  0  0
    7.7584  -13.8058    0.0000 C   0  0  1  0  0  0  0  0  0  0  0  0
    7.1134  -13.2914    0.0000 C   0  0  1  0  0  0  0  0  0  0  0  0
    6.3091  -13.4750    0.0000 C   0  0  1  0  0  0  0  0  0  0  0  0
    5.9511  -14.2183    0.0000 C   0  0  0  0  0  0  0  0  0  0  0  0
    6.3091  -14.9616    0.0000 C   0  0  0  0  0  0  0  0  0  0  0  0
    7.1134  -15.1451    0.0000 C   0  0  1  0  0  0  0  0  0  0  0  0
    7.7584  -14.6308    0.0000 C   0  0  1  0  0  0  0  0  0  0  0  0
    6.5522  -12.6866    0.0000 C   0  0  0  0  0  0  0  0  0  0  0  0
    7.6745  -15.7499    0.0000 O   0  0  0  0  0  0  0  0  0  0  0  0
    8.7979  -12.7662    0.0000 C   0  0  0  0  0  0  0  0  0  0  0  0
    6.8702  -15.9335    0.0000 C   0  0  0  0  0  0  0  0  0  0  0  0
    5.9911  -12.0818    0.0000 C   0  0  0  0  0  0  0  0  0  0  0  0
    6.7954  -11.8983    0.0000 C   0  0  0  0  0  0  0  0  0  0  0  0
    5.5411  -13.1735    0.0000 H   0  0  0  0  0  0  0  0  0  0  0  0
    8.0444  -15.4046    0.0000 H   0  0  0  0  0  0  0  0  0  0  0  0
    7.9016  -12.9933    0.0000 H   0  0  0  0  0  0  0  0  0  0  0  0
    7.5610  -12.5984    0.0000 H   0  0  0  0  0  0  0  0  0  0  0  0
  1  2  1  0  0  0  0
  2  3  1  0  0  0  0
  3  4  1  0  0  0  0
  4  5  1  0  0  0  0
  5  6  1  0  0  0  0
  6  7  1  0  0  0  0
  7  8  1  0  0  0  0
  8  9  1  0  0  0  0
  9 10  1  0  0  0  0
  1 10  1  0  0  0  0
  4 10  1  0  0  0  0
 11  5  1  0  0  0  0
 11  6  1  0  0  0  0
  9 12  1  1  0  0  0
  3 13  1  6  0  0  0
  9 14  1  6  0  0  0
 11 15  1  0  0  0  0
 11 16  1  0  0  0  0
  6 17  1  6  0  0  0
 10 18  1  1  0  0  0
  4 19  1  1  0  0  0
  5 20  1  6  0  0  0
M  END
>  <cdx:groupId>
86041

>  <cdx:fragmentId>
85982

$$$$
