99644.cdx
  Mrv1902 05222410252D          

 48 53  0  0  0  0            999 V2000
    6.6187   -7.2325    0.0000 C   0  0  1  0  0  0  0  0  0  0  0  0
    6.6187   -8.0575    0.0000 C   0  0  1  0  0  0  0  0  0  0  0  0
    7.3331   -8.4700    0.0000 C   0  0  1  0  0  0  0  0  0  0  0  0
    8.0476   -8.0575    0.0000 C   0  0  1  0  0  0  0  0  0  0  0  0
    8.0476   -7.2325    0.0000 C   0  0  2  0  0  0  0  0  0  0  0  0
    7.3331   -6.8200    0.0000 C   0  0  0  0  0  0  0  0  0  0  0  0
    8.7621   -8.4700    0.0000 C   0  0  0  0  0  0  0  0  0  0  0  0
    9.4766   -8.0575    0.0000 C   0  0  0  0  0  0  0  0  0  0  0  0
    9.4766   -7.2325    0.0000 C   0  0  2  0  0  0  0  0  0  0  0  0
    8.7621   -6.8200    0.0000 C   0  0  2  0  0  0  0  0  0  0  0  0
   10.1910   -6.8200    0.0000 C   0  0  1  0  0  0  0  0  0  0  0  0
   10.1910   -5.9950    0.0000 C   0  0  0  0  0  0  0  0  0  0  0  0
    9.4766   -5.5825    0.0000 C   0  0  0  0  0  0  0  0  0  0  0  0
    8.7621   -5.9950    0.0000 C   0  0  0  0  0  0  0  0  0  0  0  0
   10.9055   -7.2325    0.0000 C   0  0  0  0  0  0  0  0  0  0  0  0
   11.6200   -6.8200    0.0000 C   0  0  0  0  0  0  0  0  0  0  0  0
   11.6200   -5.9950    0.0000 C   0  0  2  0  0  0  0  0  0  0  0  0
   10.9055   -5.5825    0.0000 C   0  0  2  0  0  0  0  0  0  0  0  0
   12.3737   -6.3306    0.0000 C   0  0  0  0  0  0  0  0  0  0  0  0
   12.9257   -5.7175    0.0000 C   0  0  0  0  0  0  0  0  0  0  0  0
   12.5132   -5.0030    0.0000 C   0  0  0  0  0  0  0  0  0  0  0  0
   11.7062   -5.1745    0.0000 C   0  0  0  0  0  0  0  0  0  0  0  0
   13.7226   -5.5039    0.0000 C   0  0  0  0  0  0  0  0  0  0  0  0
   13.5090   -6.3008    0.0000 C   0  0  0  0  0  0  0  0  0  0  0  0
    5.9042   -8.4700    0.0000 O   0  0  0  0  0  0  0  0  0  0  0  0
    5.1897   -8.0575    0.0000 C   0  0  0  0  0  0  0  0  0  0  0  0
    4.4753   -8.4700    0.0000 C   0  0  0  0  0  0  0  0  0  0  0  0
    5.1897   -7.2325    0.0000 O   0  0  0  0  0  0  0  0  0  0  0  0
    3.7608   -8.0575    0.0000 C   0  0  0  0  0  0  0  0  0  0  0  0
    3.0463   -8.4700    0.0000 C   0  0  0  0  0  0  0  0  0  0  0  0
    2.3319   -8.0575    0.0000 C   0  0  0  0  0  0  0  0  0  0  0  0
    1.6174   -8.4700    0.0000 C   0  0  0  0  0  0  0  0  0  0  0  0
    1.6174   -9.2950    0.0000 C   0  0  0  0  0  0  0  0  0  0  0  0
    2.3319   -9.7075    0.0000 C   0  0  0  0  0  0  0  0  0  0  0  0
    3.0463   -9.2950    0.0000 C   0  0  0  0  0  0  0  0  0  0  0  0
    0.9029   -9.7075    0.0000 O   0  0  0  0  0  0  0  0  0  0  0  0
    0.9029   -8.0575    0.0000 O   0  0  0  0  0  0  0  0  0  0  0  0
    0.1884   -8.4700    0.0000 C   0  0  0  0  0  0  0  0  0  0  0  0
   10.9055   -4.7575    0.0000 O   0  0  0  0  0  0  0  0  0  0  0  0
    9.4766   -6.4075    0.0000 C   0  0  0  0  0  0  0  0  0  0  0  0
    8.0476   -6.4075    0.0000 C   0  0  0  0  0  0  0  0  0  0  0  0
    6.9206   -9.1845    0.0000 C   0  0  0  0  0  0  0  0  0  0  0  0
   10.1910   -7.6450    0.0000 C   0  0  0  0  0  0  0  0  0  0  0  0
    8.7621   -7.6450    0.0000 H   0  0  0  0  0  0  0  0  0  0  0  0
    8.0476   -8.8825    0.0000 H   0  0  0  0  0  0  0  0  0  0  0  0
    5.9042   -6.8200    0.0000 O   0  0  0  0  0  0  0  0  0  0  0  0
    7.7456   -9.1845    0.0000 C   0  0  0  0  0  0  0  0  0  0  0  0
    7.5321   -9.9814    0.0000 O   0  0  0  0  0  0  0  0  0  0  0  0
  1  2  1  0  0  0  0
  2  3  1  0  0  0  0
  3  4  1  0  0  0  0
  4  5  1  0  0  0  0
  5  6  1  0  0  0  0
  6  1  1  0  0  0  0
  4  7  1  0  0  0  0
  7  8  1  0  0  0  0
  8  9  1  0  0  0  0
  9 10  1  0  0  0  0
 10  5  1  0  0  0  0
  9 11  1  0  0  0  0
 11 12  1  0  0  0  0
 12 13  2  0  0  0  0
 13 14  1  0  0  0  0
 14 10  1  0  0  0  0
 11 15  1  0  0  0  0
 15 16  1  0  0  0  0
 16 17  1  0  0  0  0
 17 18  1  0  0  0  0
 18 12  1  0  0  0  0
 17 19  1  6  0  0  0
 19 20  1  0  0  0  0
 20 21  1  0  0  0  0
 21 22  1  0  0  0  0
 17 22  1  1  0  0  0
 20 23  1  0  0  0  0
 20 24  1  0  0  0  0
  2 25  1  1  0  0  0
 25 26  1  0  0  0  0
 26 27  1  0  0  0  0
 26 28  2  0  0  0  0
 27 29  2  0  0  0  0
 29 30  1  0  0  0  0
 30 31  2  0  0  0  0
 31 32  1  0  0  0  0
 32 33  2  0  0  0  0
 33 34  1  0  0  0  0
 34 35  2  0  0  0  0
 35 30  1  0  0  0  0
 33 36  1  0  0  0  0
 32 37  1  0  0  0  0
 37 38  1  0  0  0  0
 18 39  1  1  0  0  0
  9 40  1  1  0  0  0
  5 41  1  1  0  0  0
  3 42  1  1  0  0  0
 11 43  1  6  0  0  0
 10 44  1  6  0  0  0
  4 45  1  6  0  0  0
  1 46  1  6  0  0  0
  3 47  1  6  0  0  0
 47 48  1  0  0  0  0
M  END
>  <cdx:fragmentId>
5

$$$$
