99645.cdx
  Mrv1902 05222410252D          

 55 62  0  0  0  0            999 V2000
    2.4112   -6.1325    0.0000 C   0  0  0  0  0  0  0  0  0  0  0  0
    2.4112   -6.9575    0.0000 C   0  0  0  0  0  0  0  0  0  0  0  0
    3.1256   -7.3700    0.0000 C   0  0  0  0  0  0  0  0  0  0  0  0
    3.8401   -6.9575    0.0000 C   0  0  0  0  0  0  0  0  0  0  0  0
    3.8401   -6.1325    0.0000 C   0  0  0  0  0  0  0  0  0  0  0  0
    3.1256   -5.7200    0.0000 C   0  0  0  0  0  0  0  0  0  0  0  0
    4.5546   -7.3700    0.0000 C   0  0  0  0  0  0  0  0  0  0  0  0
    5.2691   -6.9575    0.0000 C   0  0  0  0  0  0  0  0  0  0  0  0
    5.2691   -6.1325    0.0000 C   0  0  0  0  0  0  0  0  0  0  0  0
    4.5546   -5.7200    0.0000 O   0  0  0  0  0  0  0  0  0  0  0  0
    3.1256   -8.1950    0.0000 O   0  0  0  0  0  0  0  0  0  0  0  0
    4.5546   -8.1950    0.0000 O   0  0  0  0  0  0  0  0  0  0  0  0
    5.9835   -5.7200    0.0000 C   0  0  0  0  0  0  0  0  0  0  0  0
    5.9835   -4.8950    0.0000 C   0  0  0  0  0  0  0  0  0  0  0  0
    6.6980   -6.1325    0.0000 C   0  0  0  0  0  0  0  0  0  0  0  0
    7.4125   -5.7200    0.0000 C   0  0  0  0  0  0  0  0  0  0  0  0
    7.4125   -4.8950    0.0000 C   0  0  0  0  0  0  0  0  0  0  0  0
    6.6980   -4.4825    0.0000 C   0  0  0  0  0  0  0  0  0  0  0  0
    1.6967   -5.7200    0.0000 O   0  0  0  0  0  0  0  0  0  0  0  0
    6.6980   -3.6575    0.0000 O   0  0  0  0  0  0  0  0  0  0  0  0
    5.9835   -6.5450    0.0000 O   0  0  0  0  0  0  0  0  0  0  0  0
    6.6980   -6.9575    0.0000 C   0  0  0  0  0  0  0  0  0  0  0  0
    6.6980   -7.7825    0.0000 C   0  0  0  0  0  0  0  0  0  0  0  0
    7.4125   -8.1950    0.0000 C   0  0  0  0  0  0  0  0  0  0  0  0
    8.1269   -7.7825    0.0000 C   0  0  0  0  0  0  0  0  0  0  0  0
    8.1269   -6.9575    0.0000 C   0  0  0  0  0  0  0  0  0  0  0  0
    7.4125   -6.5450    0.0000 C   0  0  0  0  0  0  0  0  0  0  0  0
    5.9835   -8.1950    0.0000 O   0  0  0  0  0  0  0  0  0  0  0  0
    6.0660   -7.1710    0.0000 O   0  0  0  0  0  0  0  0  0  0  0  0
    8.8414   -8.1950    0.0000 C   0  0  0  0  0  0  0  0  0  0  0  0
    8.8414   -9.0200    0.0000 C   0  0  0  0  0  0  0  0  0  0  0  0
    8.1269   -9.4325    0.0000 O   0  0  0  0  0  0  0  0  0  0  0  0
    9.5559   -9.4325    0.0000 C   0  0  0  0  0  0  0  0  0  0  0  0
   10.2704   -9.0200    0.0000 C   0  0  0  0  0  0  0  0  0  0  0  0
   10.2704   -8.1950    0.0000 C   0  0  0  0  0  0  0  0  0  0  0  0
    9.5559   -7.7825    0.0000 O   0  0  0  0  0  0  0  0  0  0  0  0
    9.5559  -10.2575    0.0000 O   0  0  0  0  0  0  0  0  0  0  0  0
   10.9848  -10.2575    0.0000 O   0  0  0  0  0  0  0  0  0  0  0  0
   10.9848   -9.4325    0.0000 C   0  0  0  0  0  0  0  0  0  0  0  0
   11.6993   -9.0200    0.0000 C   0  0  0  0  0  0  0  0  0  0  0  0
   11.6993   -8.1950    0.0000 C   0  0  0  0  0  0  0  0  0  0  0  0
   10.9848   -7.7825    0.0000 C   0  0  0  0  0  0  0  0  0  0  0  0
   12.4138   -7.7825    0.0000 O   0  0  0  0  0  0  0  0  0  0  0  0
    8.1269   -4.4825    0.0000 O   0  0  0  0  0  0  0  0  0  0  0  0
    8.8414   -4.8950    0.0000 C   0  0  2  0  0  0  0  0  0  0  0  0
    8.8414   -5.7200    0.0000 O   0  0  0  0  0  0  0  0  0  0  0  0
    9.5559   -6.1325    0.0000 C   0  0  1  0  0  0  0  0  0  0  0  0
   10.2704   -5.7200    0.0000 C   0  0  2  0  0  0  0  0  0  0  0  0
   10.2704   -4.8950    0.0000 C   0  0  1  0  0  0  0  0  0  0  0  0
    9.5559   -4.4825    0.0000 C   0  0  1  0  0  0  0  0  0  0  0  0
   10.9848   -4.4825    0.0000 O   0  0  0  0  0  0  0  0  0  0  0  0
    9.5559   -6.9575    0.0000 C   0  0  0  0  0  0  0  0  0  0  0  0
   10.2704   -7.3700    0.0000 O   0  0  0  0  0  0  0  0  0  0  0  0
    9.5559   -3.6575    0.0000 O   0  0  0  0  0  0  0  0  0  0  0  0
   10.9848   -6.1325    0.0000 O   0  0  0  0  0  0  0  0  0  0  0  0
  1  2  2  0  0  0  0
  2  3  1  0  0  0  0
  3  4  2  0  0  0  0
  4  5  1  0  0  0  0
  5  6  2  0  0  0  0
  6  1  1  0  0  0  0
  4  7  1  0  0  0  0
  7  8  1  0  0  0  0
  8  9  1  0  0  0  0
  9 10  1  0  0  0  0
 10  5  1  0  0  0  0
  3 11  1  0  0  0  0
 12  7  2  0  0  0  0
  9 13  1  0  0  0  0
 13 14  2  0  0  0  0
 13 15  1  0  0  0  0
 15 16  2  0  0  0  0
 16 17  1  0  0  0  0
 17 18  2  0  0  0  0
 18 14  1  0  0  0  0
  1 19  1  0  0  0  0
 18 20  1  0  0  0  0
  9 21  1  0  0  0  0
 21 22  1  0  0  0  0
 22 23  2  0  0  0  0
 23 24  1  0  0  0  0
 24 25  2  0  0  0  0
 25 26  1  0  0  0  0
 26 27  2  0  0  0  0
 27 22  1  0  0  0  0
 23 28  1  0  0  0  0
  8 28  1  0  0  0  0
  8 29  1  0  0  0  0
 25 30  1  0  0  0  0
 30 31  2  0  0  0  0
 31 32  1  0  0  0  0
 31 33  1  0  0  0  0
 33 34  1  0  0  0  0
 34 35  2  0  0  0  0
 35 36  1  0  0  0  0
 36 30  1  0  0  0  0
 33 37  2  0  0  0  0
 38 39  1  0  0  0  0
 39 34  1  0  0  0  0
 39 40  2  0  0  0  0
 40 41  1  0  0  0  0
 41 42  2  0  0  0  0
 42 35  1  0  0  0  0
 41 43  1  0  0  0  0
 17 44  1  0  0  0  0
 45 44  1  1  0  0  0
 45 46  1  0  0  0  0
 46 47  1  0  0  0  0
 47 48  1  0  0  0  0
 48 49  1  0  0  0  0
 49 50  1  0  0  0  0
 50 45  1  0  0  0  0
 49 51  1  1  0  0  0
 47 52  1  1  0  0  0
 52 53  1  0  0  0  0
 50 54  1  6  0  0  0
 48 55  1  6  0  0  0
M  END
>  <cdx:fragmentId>
5

$$$$
