99641.cdx
  Mrv1902 05222410232D          

 53 53  0  0  0  0            999 V2000
   11.0598   -9.8343    0.0000 C   0  0  0  0  0  0  0  0  0  0  0  0
   11.0598  -10.6593    0.0000 C   0  0  0  0  0  0  0  0  0  0  0  0
   11.7743  -11.0718    0.0000 C   0  0  0  0  0  0  0  0  0  0  0  0
   11.7743  -11.8968    0.0000 C   0  0  0  0  0  0  0  0  0  0  0  0
   12.4888  -12.3093    0.0000 C   0  0  0  0  0  0  0  0  0  0  0  0
   12.4888  -13.1343    0.0000 C   0  0  0  0  0  0  0  0  0  0  0  0
   13.2032  -13.5468    0.0000 C   0  0  0  0  0  0  0  0  0  0  0  0
   13.2032  -14.3718    0.0000 C   0  0  0  0  0  0  0  0  0  0  0  0
   13.9177  -14.7843    0.0000 C   0  0  0  0  0  0  0  0  0  0  0  0
   13.9177  -15.6093    0.0000 C   0  0  0  0  0  0  0  0  0  0  0  0
   10.3454   -9.4218    0.0000 C   0  0  0  0  0  0  0  0  0  0  0  0
    9.6309   -9.8343    0.0000 C   0  0  0  0  0  0  0  0  0  0  0  0
    8.9164   -9.4218    0.0000 C   0  0  0  0  0  0  0  0  0  0  0  0
    8.2019   -9.8343    0.0000 C   0  0  0  0  0  0  0  0  0  0  0  0
    7.4875   -9.4218    0.0000 C   0  0  0  0  0  0  0  0  0  0  0  0
    6.7730   -9.8343    0.0000 C   0  0  2  0  0  0  0  0  0  0  0  0
    6.0585   -9.4218    0.0000 C   0  0  2  0  0  0  0  0  0  0  0  0
    5.3441   -9.8343    0.0000 C   0  0  0  0  0  0  0  0  0  0  0  0
    4.6296   -9.4218    0.0000 O   0  0  0  0  0  0  0  0  0  0  0  0
    2.4765   -9.8345    0.0000 C   0  0  2  0  0  0  0  0  0  0  0  0
    2.4765  -10.6595    0.0000 C   0  0  2  0  0  0  0  0  0  0  0  0
    3.1910  -11.0720    0.0000 C   0  0  1  0  0  0  0  0  0  0  0  0
    3.9055  -10.6595    0.0000 C   0  0  2  0  0  0  0  0  0  0  0  0
    3.9055   -9.8345    0.0000 C   0  0  1  0  0  0  0  0  0  0  0  0
    3.1910   -9.4220    0.0000 O   0  0  0  0  0  0  0  0  0  0  0  0
    1.7621   -9.4220    0.0000 C   0  0  0  0  0  0  0  0  0  0  0  0
    3.1910  -11.8970    0.0000 O   0  0  0  0  0  0  0  0  0  0  0  0
    1.7621  -11.0720    0.0000 O   0  0  0  0  0  0  0  0  0  0  0  0
    4.6199  -11.0720    0.0000 O   0  0  0  0  0  0  0  0  0  0  0  0
    1.0476   -9.8345    0.0000 O   0  0  0  0  0  0  0  0  0  0  0  0
    6.0310   -7.3176    0.0000 N   0  0  0  0  0  0  0  0  0  0  0  0
    6.7730  -10.6593    0.0000 O   0  0  0  0  0  0  0  0  0  0  0  0
    6.7455   -6.9051    0.0000 C   0  0  0  0  0  0  0  0  0  0  0  0
    7.4600   -7.3176    0.0000 C   0  0  1  0  0  0  0  0  0  0  0  0
    8.1744   -6.9051    0.0000 C   0  0  0  0  0  0  0  0  0  0  0  0
    6.7455   -6.0801    0.0000 O   0  0  0  0  0  0  0  0  0  0  0  0
    8.8889   -7.3176    0.0000 C   0  0  0  0  0  0  0  0  0  0  0  0
    9.6034   -6.9051    0.0000 C   0  0  0  0  0  0  0  0  0  0  0  0
    7.4600   -8.1426    0.0000 O   0  0  0  0  0  0  0  0  0  0  0  0
   17.4597   -7.3311    0.0000 C   0  0  0  0  0  0  0  0  0  0  0  0
   16.7452   -6.9186    0.0000 C   0  0  0  0  0  0  0  0  0  0  0  0
   16.0308   -7.3311    0.0000 C   0  0  0  0  0  0  0  0  0  0  0  0
   15.3163   -6.9186    0.0000 C   0  0  0  0  0  0  0  0  0  0  0  0
   14.6018   -7.3311    0.0000 C   0  0  0  0  0  0  0  0  0  0  0  0
   13.8874   -6.9186    0.0000 C   0  0  0  0  0  0  0  0  0  0  0  0
   13.1729   -7.3311    0.0000 C   0  0  0  0  0  0  0  0  0  0  0  0
   12.4584   -6.9186    0.0000 C   0  0  0  0  0  0  0  0  0  0  0  0
   11.7439   -7.3311    0.0000 C   0  0  0  0  0  0  0  0  0  0  0  0
   11.0295   -6.9186    0.0000 C   0  0  0  0  0  0  0  0  0  0  0  0
   10.3150   -7.3311    0.0000 C   0  0  0  0  0  0  0  0  0  0  0  0
    8.1744   -8.5551    0.0000 C   0  0  0  0  0  0  0  0  0  0  0  0
    8.1744   -9.3801    0.0000 C   0  0  0  0  0  0  0  0  0  0  0  0
    8.8889   -8.1426    0.0000 O   0  0  0  0  0  0  0  0  0  0  0  0
  1  2  1  0  0  0  0
  2  3  1  0  0  0  0
  3  4  1  0  0  0  0
  4  5  1  0  0  0  0
  5  6  1  0  0  0  0
  6  7  1  0  0  0  0
  7  8  1  0  0  0  0
  8  9  1  0  0  0  0
 11  1  2  0  0  0  0
  9 10  1  0  0  0  0
 12 11  1  0  0  0  0
 13 12  1  0  0  0  0
 14 13  1  0  0  0  0
 15 14  2  0  0  0  0
 16 15  1  0  0  0  0
 17 16  1  0  0  0  0
 18 17  1  0  0  0  0
 19 18  1  0  0  0  0
 20 21  1  0  0  0  0
 21 22  1  0  0  0  0
 22 23  1  0  0  0  0
 23 24  1  0  0  0  0
 24 25  1  0  0  0  0
 25 20  1  0  0  0  0
 20 26  1  1  0  0  0
 22 27  1  1  0  0  0
 21 28  1  6  0  0  0
 23 29  1  6  0  0  0
 26 30  1  0  0  0  0
 17 31  1  6  0  0  0
 16 32  1  1  0  0  0
 24 19  1  1  0  0  0
 31 33  1  0  0  0  0
 33 34  1  0  0  0  0
 34 35  1  0  0  0  0
 33 36  2  0  0  0  0
 35 37  1  0  0  0  0
 37 38  1  0  0  0  0
 34 39  1  1  0  0  0
 41 40  1  0  0  0  0
 42 41  1  0  0  0  0
 43 42  1  0  0  0  0
 44 43  1  0  0  0  0
 45 44  1  0  0  0  0
 46 45  1  0  0  0  0
 47 46  1  0  0  0  0
 48 47  1  0  0  0  0
 49 48  1  0  0  0  0
 50 49  1  0  0  0  0
 50 38  1  0  0  0  0
 39 51  1  0  0  0  0
 51 52  1  0  0  0  0
 51 53  2  0  0  0  0
M  END
>  <cdx:fragmentId>
3

$$$$
