99643.cdx
  Mrv1902 05222410242D          

 25 28  0  0  0  0            999 V2000
    7.1365   -4.7864    0.0000 C   0  0  0  0  0  0  0  0  0  0  0  0
    7.1365   -5.6114    0.0000 C   0  0  0  0  0  0  0  0  0  0  0  0
    6.4220   -6.0239    0.0000 C   0  0  0  0  0  0  0  0  0  0  0  0
    5.7076   -5.6114    0.0000 C   0  0  0  0  0  0  0  0  0  0  0  0
    4.9931   -6.0239    0.0000 C   0  0  0  0  0  0  0  0  0  0  0  0
    4.2786   -5.6114    0.0000 C   0  0  0  0  0  0  0  0  0  0  0  0
    4.2786   -4.7864    0.0000 C   0  0  0  0  0  0  0  0  0  0  0  0
    4.9931   -4.3739    0.0000 C   0  0  0  0  0  0  0  0  0  0  0  0
    5.7076   -4.7864    0.0000 C   0  0  0  0  0  0  0  0  0  0  0  0
    6.4220   -4.3739    0.0000 O   0  0  0  0  0  0  0  0  0  0  0  0
    6.4220   -6.8489    0.0000 O   0  0  0  0  0  0  0  0  0  0  0  0
   10.7089   -6.8489    0.0000 C   0  0  0  0  0  0  0  0  0  0  0  0
   10.7089   -6.0239    0.0000 C   0  0  0  0  0  0  0  0  0  0  0  0
    9.9944   -5.6114    0.0000 C   0  0  0  0  0  0  0  0  0  0  0  0
    9.2799   -6.0239    0.0000 C   0  0  0  0  0  0  0  0  0  0  0  0
    8.5655   -5.6114    0.0000 C   0  0  0  0  0  0  0  0  0  0  0  0
    7.8510   -6.0239    0.0000 C   0  0  0  0  0  0  0  0  0  0  0  0
    7.8510   -6.8489    0.0000 C   0  0  0  0  0  0  0  0  0  0  0  0
    8.5655   -7.2614    0.0000 C   0  0  0  0  0  0  0  0  0  0  0  0
    9.2799   -6.8489    0.0000 C   0  0  0  0  0  0  0  0  0  0  0  0
    9.9944   -7.2614    0.0000 O   0  0  0  0  0  0  0  0  0  0  0  0
   11.1214   -7.5633    0.0000 C   0  0  0  0  0  0  0  0  0  0  0  0
   11.5339   -6.8489    0.0000 C   0  0  0  0  0  0  0  0  0  0  0  0
   11.4233   -5.6114    0.0000 O   0  0  0  0  0  0  0  0  0  0  0  0
    3.5642   -4.3739    0.0000 O   0  0  0  0  0  0  0  0  0  0  0  0
  1  2  2  0  0  0  0
  2  3  1  0  0  0  0
  3  4  1  0  0  0  0
  4  5  1  0  0  0  0
  5  6  2  0  0  0  0
  6  7  1  0  0  0  0
  7  8  2  0  0  0  0
  8  9  1  0  0  0  0
  4  9  2  0  0  0  0
  9 10  1  0  0  0  0
  1 10  1  0  0  0  0
  3 11  2  0  0  0  0
 12 13  1  0  0  0  0
 13 14  1  0  0  0  0
 14 15  1  0  0  0  0
 15 16  1  0  0  0  0
 16 17  2  0  0  0  0
 17 18  1  0  0  0  0
 18 19  2  0  0  0  0
 19 20  1  0  0  0  0
 15 20  2  0  0  0  0
 20 21  1  0  0  0  0
 12 21  1  0  0  0  0
 12 22  1  0  0  0  0
 12 23  1  0  0  0  0
 13 24  1  0  0  0  0
  2 17  1  0  0  0  0
  7 25  1  0  0  0  0
M  END
>  <cdx:fragmentId>
18470

$$$$
