99642.cdx
  Mrv1902 05222410242D          

 63 62  0  0  0  0            999 V2000
   15.7770   -6.5844    0.0000 C   0  0  0  0  0  0  0  0  0  0  0  0
   14.9958   -6.9137    0.0000 O   0  0  0  0  0  0  0  0  0  0  0  0
   14.2931   -5.6700    0.0000 O   0  0  0  0  0  0  0  0  0  0  0  0
    8.5717   -6.4415    0.0000 C   0  0  0  0  0  0  0  0  0  0  0  0
    9.2821   -6.8605    0.0000 C   0  0  0  0  0  0  0  0  0  0  0  0
   10.0001   -6.4548    0.0000 C   0  0  0  0  0  0  0  0  0  0  0  0
   10.7105   -6.8738    0.0000 C   0  0  0  0  0  0  0  0  0  0  0  0
   11.4286   -6.4681    0.0000 C   0  0  0  0  0  0  0  0  0  0  0  0
   12.1389   -6.8871    0.0000 C   0  0  0  0  0  0  0  0  0  0  0  0
   12.8570   -6.4814    0.0000 C   0  0  0  0  0  0  0  0  0  0  0  0
   17.9390   -7.0087    0.0000 C   0  0  0  0  0  0  0  0  0  0  0  0
   18.6520   -6.5942    0.0000 C   0  0  0  0  0  0  0  0  0  0  0  0
   19.3675   -7.0045    0.0000 C   0  0  0  0  0  0  0  0  0  0  0  0
   20.0805   -6.5900    0.0000 C   0  0  0  0  0  0  0  0  0  0  0  0
   20.7960   -7.0003    0.0000 C   0  0  0  0  0  0  0  0  0  0  0  0
   21.5090   -6.5858    0.0000 C   0  0  0  0  0  0  0  0  0  0  0  0
   22.2244   -6.9961    0.0000 C   0  0  0  0  0  0  0  0  0  0  0  0
   22.9375   -6.5816    0.0000 C   0  0  0  0  0  0  0  0  0  0  0  0
   23.6529   -6.9919    0.0000 C   0  0  0  0  0  0  0  0  0  0  0  0
   17.9414   -7.8335    0.0000 O   0  0  0  0  0  0  0  0  0  0  0  0
   17.2235   -6.5985    0.0000 O   0  0  0  0  0  0  0  0  0  0  0  0
   16.4816   -7.8271    0.0000 C   0  0  0  0  0  0  0  0  0  0  0  0
   15.7630   -9.0603    0.0000 C   0  0  0  0  0  0  0  0  0  0  0  0
   15.0456   -9.4671    0.0000 C   0  0  0  0  0  0  0  0  0  0  0  0
   15.0392  -10.2918    0.0000 C   0  0  0  0  0  0  0  0  0  0  0  0
   14.3217  -10.6986    0.0000 C   0  0  0  0  0  0  0  0  0  0  0  0
   14.3153  -11.5233    0.0000 C   0  0  0  0  0  0  0  0  0  0  0  0
   13.5979  -11.9301    0.0000 C   0  0  0  0  0  0  0  0  0  0  0  0
   13.5915  -12.7548    0.0000 C   0  0  0  0  0  0  0  0  0  0  0  0
   12.8740  -13.1616    0.0000 C   0  0  0  0  0  0  0  0  0  0  0  0
   12.8676  -13.9863    0.0000 C   0  0  0  0  0  0  0  0  0  0  0  0
   16.4740   -9.4782    0.0000 O   0  0  0  0  0  0  0  0  0  0  0  0
   15.7694   -8.2356    0.0000 O   0  0  0  0  0  0  0  0  0  0  0  0
   16.4880   -7.0024    0.0000 C   0  0  0  0  0  0  0  0  0  0  0  0
   13.5674   -6.9004    0.0000 C   0  0  0  0  0  0  0  0  0  0  0  0
   14.2854   -6.4947    0.0000 C   0  0  0  0  0  0  0  0  0  0  0  0
   24.3662   -6.5773    0.0000 C   0  0  0  0  0  0  0  0  0  0  0  0
   24.3638   -5.7523    0.0000 C   0  0  0  0  0  0  0  0  0  0  0  0
   25.0770   -5.3377    0.0000 C   0  0  0  0  0  0  0  0  0  0  0  0
   25.0746   -4.5127    0.0000 C   0  0  0  0  0  0  0  0  0  0  0  0
   24.3589   -4.1023    0.0000 C   0  0  0  0  0  0  0  0  0  0  0  0
   24.3565   -3.2773    0.0000 C   0  0  0  0  0  0  0  0  0  0  0  0
   23.6408   -2.8669    0.0000 C   0  0  0  0  0  0  0  0  0  0  0  0
   23.6383   -2.0419    0.0000 C   0  0  0  0  0  0  0  0  0  0  0  0
   22.9226   -1.6315    0.0000 C   0  0  0  0  0  0  0  0  0  0  0  0
    7.8534   -6.8473    0.0000 C   0  0  0  0  0  0  0  0  0  0  0  0
    7.8457   -7.6723    0.0000 C   0  0  0  0  0  0  0  0  0  0  0  0
    7.1275   -8.0781    0.0000 C   0  0  0  0  0  0  0  0  0  0  0  0
    7.1198   -8.9031    0.0000 C   0  0  0  0  0  0  0  0  0  0  0  0
    6.4015   -9.3089    0.0000 C   0  0  0  0  0  0  0  0  0  0  0  0
    6.3938  -10.1339    0.0000 C   0  0  0  0  0  0  0  0  0  0  0  0
    5.6755  -10.5397    0.0000 C   0  0  0  0  0  0  0  0  0  0  0  0
    5.6678  -11.3647    0.0000 C   0  0  0  0  0  0  0  0  0  0  0  0
    4.9496  -11.7705    0.0000 C   0  0  0  0  0  0  0  0  0  0  0  0
   12.1499  -14.3933    0.0000 C   0  0  0  0  0  0  0  0  0  0  0  0
   11.4387  -13.9752    0.0000 C   0  0  0  0  0  0  0  0  0  0  0  0
   10.7211  -14.3821    0.0000 C   0  0  0  0  0  0  0  0  0  0  0  0
   10.0098  -13.9641    0.0000 C   0  0  0  0  0  0  0  0  0  0  0  0
   10.0162  -13.1391    0.0000 C   0  0  0  0  0  0  0  0  0  0  0  0
    9.3050  -12.7211    0.0000 C   0  0  0  0  0  0  0  0  0  0  0  0
    9.3114  -11.8961    0.0000 C   0  0  0  0  0  0  0  0  0  0  0  0
   10.0291  -11.4892    0.0000 C   0  0  0  0  0  0  0  0  0  0  0  0
   10.0355  -10.6642    0.0000 C   0  0  0  0  0  0  0  0  0  0  0  0
  1  2  1  0  0  0  0
 36  2  1  0  0  0  0
 36  3  2  0  0  0  0
  5  4  1  0  0  0  0
  6  5  1  0  0  0  0
  7  6  1  0  0  0  0
  8  7  1  0  0  0  0
  9  8  1  0  0  0  0
 10  9  1  0  0  0  0
 35 10  1  0  0  0  0
 36 35  1  0  0  0  0
 11 12  1  0  0  0  0
 12 13  1  0  0  0  0
 13 14  1  0  0  0  0
 14 15  1  0  0  0  0
 15 16  1  0  0  0  0
 16 17  1  0  0  0  0
 17 18  1  0  0  0  0
 18 19  1  0  0  0  0
 11 20  2  0  0  0  0
 11 21  1  0  0  0  0
 22 33  1  0  0  0  0
 23 24  1  0  0  0  0
 24 25  1  0  0  0  0
 25 26  1  0  0  0  0
 26 27  1  0  0  0  0
 27 28  1  0  0  0  0
 28 29  1  0  0  0  0
 29 30  1  0  0  0  0
 30 31  1  0  0  0  0
 23 32  2  0  0  0  0
 22 34  1  0  0  0  0
 34  1  1  0  0  0  0
 23 33  1  0  0  0  0
 34 21  1  0  0  0  0
 19 37  2  0  0  0  0
 37 38  1  0  0  0  0
 38 39  1  0  0  0  0
 39 40  2  0  0  0  0
 40 41  1  0  0  0  0
 41 42  1  0  0  0  0
 42 43  1  0  0  0  0
 43 44  1  0  0  0  0
 44 45  1  0  0  0  0
  4 46  2  0  0  0  0
 46 47  1  0  0  0  0
 47 48  1  0  0  0  0
 48 49  1  0  0  0  0
 49 50  1  0  0  0  0
 50 51  1  0  0  0  0
 51 52  1  0  0  0  0
 52 53  1  0  0  0  0
 53 54  1  0  0  0  0
 31 55  2  0  0  0  0
 55 56  1  0  0  0  0
 56 57  1  0  0  0  0
 57 58  2  0  0  0  0
 58 59  1  0  0  0  0
 59 60  1  0  0  0  0
 60 61  2  0  0  0  0
 61 62  1  0  0  0  0
 62 63  1  0  0  0  0
M  END
>  <cdx:fragmentId>
129

$$$$
