99647.cdx
  Mrv1902 05222410252D          

 36 39  0  0  0  0            999 V2000
    3.5937   -7.5900    0.0000 C   0  0  0  0  0  0  0  0  0  0  0  0
    3.5937   -8.4150    0.0000 C   0  0  0  0  0  0  0  0  0  0  0  0
    4.3081   -8.8275    0.0000 C   0  0  0  0  0  0  0  0  0  0  0  0
    5.0226   -8.4150    0.0000 C   0  0  0  0  0  0  0  0  0  0  0  0
    5.0226   -7.5900    0.0000 C   0  0  0  0  0  0  0  0  0  0  0  0
    4.3081   -7.1775    0.0000 C   0  0  0  0  0  0  0  0  0  0  0  0
    4.3081   -9.6525    0.0000 O   0  0  0  0  0  0  0  0  0  0  0  0
    5.0226  -10.0650    0.0000 C   0  0  0  0  0  0  0  0  0  0  0  0
    5.7371   -7.1775    0.0000 C   0  0  0  0  0  0  0  0  0  0  0  0
    5.7371   -6.3525    0.0000 C   0  0  0  0  0  0  0  0  0  0  0  0
    5.0226   -5.9400    0.0000 C   0  0  0  0  0  0  0  0  0  0  0  0
    6.4516   -7.5900    0.0000 O   0  0  0  0  0  0  0  0  0  0  0  0
    7.1660   -7.1775    0.0000 C   0  0  0  0  0  0  0  0  0  0  0  0
    7.1660   -6.3525    0.0000 C   0  0  0  0  0  0  0  0  0  0  0  0
    7.8805   -7.5900    0.0000 C   0  0  0  0  0  0  0  0  0  0  0  0
    8.5950   -7.1775    0.0000 C   0  0  0  0  0  0  0  0  0  0  0  0
    8.5950   -6.3525    0.0000 C   0  0  0  0  0  0  0  0  0  0  0  0
    7.8805   -5.9400    0.0000 C   0  0  0  0  0  0  0  0  0  0  0  0
   10.0239   -6.3525    0.0000 C   0  0  0  0  0  0  0  0  0  0  0  0
    9.3094   -5.9400    0.0000 C   0  0  0  0  0  0  0  0  0  0  0  0
    2.8792   -8.8275    0.0000 O   0  0  0  0  0  0  0  0  0  0  0  0
    5.0226   -5.1150    0.0000 O   0  0  0  0  0  0  0  0  0  0  0  0
    7.8805   -8.4150    0.0000 O   0  0  0  0  0  0  0  0  0  0  0  0
   10.7384   -5.9400    0.0000 C   0  0  0  0  0  0  0  0  0  0  0  0
   11.4529   -6.3525    0.0000 O   0  0  0  0  0  0  0  0  0  0  0  0
    9.3065  -10.0561    0.0000 C   0  0  2  0  0  0  0  0  0  0  0  0
   10.0216   -9.6446    0.0000 C   0  0  2  0  0  0  0  0  0  0  0  0
   10.0229   -8.8196    0.0000 C   0  0  1  0  0  0  0  0  0  0  0  0
    9.3090   -8.4061    0.0000 C   0  0  2  0  0  0  0  0  0  0  0  0
    8.5939   -8.8175    0.0000 C   0  0  1  0  0  0  0  0  0  0  0  0
    8.5927   -9.6425    0.0000 O   0  0  0  0  0  0  0  0  0  0  0  0
    9.3053  -10.8811    0.0000 C   0  0  0  0  0  0  0  0  0  0  0  0
   10.7380   -8.4082    0.0000 O   0  0  0  0  0  0  0  0  0  0  0  0
   10.7355  -10.0582    0.0000 O   0  0  0  0  0  0  0  0  0  0  0  0
    9.3103   -7.5811    0.0000 O   0  0  0  0  0  0  0  0  0  0  0  0
   10.0191  -11.2946    0.0000 O   0  0  0  0  0  0  0  0  0  0  0  0
  1  2  2  0  0  0  0
  2  3  1  0  0  0  0
  3  4  2  0  0  0  0
  4  5  1  0  0  0  0
  5  6  2  0  0  0  0
  6  1  1  0  0  0  0
  3  7  1  0  0  0  0
  7  8  1  0  0  0  0
  5  9  1  0  0  0  0
  9 10  1  0  0  0  0
 10 11  1  0  0  0  0
  9 12  1  0  0  0  0
 12 13  1  0  0  0  0
 13 14  2  0  0  0  0
 13 15  1  0  0  0  0
 15 16  2  0  0  0  0
 16 17  1  0  0  0  0
 17 18  2  0  0  0  0
 18 14  1  0  0  0  0
 19 20  2  0  0  0  0
 20 17  1  0  0  0  0
  2 21  1  0  0  0  0
 10 14  1  0  0  0  0
 11 22  1  0  0  0  0
 15 23  1  0  0  0  0
 19 24  1  0  0  0  0
 24 25  1  0  0  0  0
 26 27  1  0  0  0  0
 27 28  1  0  0  0  0
 28 29  1  0  0  0  0
 29 30  1  0  0  0  0
 30 31  1  0  0  0  0
 31 26  1  0  0  0  0
 26 32  1  1  0  0  0
 28 33  1  1  0  0  0
 27 34  1  6  0  0  0
 29 35  1  6  0  0  0
 32 36  1  0  0  0  0
 30 23  1  1  0  0  0
M  END
>  <cdx:fragmentId>
5

$$$$
