99648.cdx
  Mrv1902 05222410212D          

 36 41  0  0  0  0            999 V2000
    4.7172   -9.4534    0.0000 C   0  0  0  0  0  0  0  0  0  0  0  0
    4.7172   -8.6284    0.0000 C   0  0  0  0  0  0  0  0  0  0  0  0
    5.4316   -8.2159    0.0000 C   0  0  0  0  0  0  0  0  0  0  0  0
    5.4316   -9.8659    0.0000 C   0  0  2  0  0  0  0  0  0  0  0  0
    5.8441  -10.5804    0.0000 C   0  0  0  0  0  0  0  0  0  0  0  0
    5.0191  -10.5804    0.0000 C   0  0  0  0  0  0  0  0  0  0  0  0
    6.1461   -9.4534    0.0000 C   0  0  2  0  0  0  0  0  0  0  0  0
    6.1461  -10.2784    0.0000 H   0  0  0  0  0  0  0  0  0  0  0  0
    6.8606   -9.8659    0.0000 C   0  0  0  0  0  0  0  0  0  0  0  0
    7.5750   -9.4534    0.0000 C   0  0  0  0  0  0  0  0  0  0  0  0
    7.5750   -8.6284    0.0000 C   0  0  1  0  0  0  0  0  0  0  0  0
    7.5750   -7.8034    0.0000 C   0  0  0  0  0  0  0  0  0  0  0  0
    8.2895   -8.2159    0.0000 C   0  0  2  0  0  0  0  0  0  0  0  0
    8.2895   -9.0409    0.0000 C   0  0  0  0  0  0  0  0  0  0  0  0
    9.0040   -8.6284    0.0000 C   0  0  0  0  0  0  0  0  0  0  0  0
    9.7184   -8.2159    0.0000 C   0  0  0  0  0  0  0  0  0  0  0  0
    9.7184   -7.3909    0.0000 C   0  0  1  0  0  0  0  0  0  0  0  0
    9.3455   -6.8231    0.0000 C   0  0  0  0  0  0  0  0  0  0  0  0
   10.4329   -6.9784    0.0000 C   0  0  0  0  0  0  0  0  0  0  0  0
   10.4329   -6.1534    0.0000 C   0  0  0  0  0  0  0  0  0  0  0  0
    9.7184   -5.7409    0.0000 C   0  0  1  0  0  0  0  0  0  0  0  0
    9.7184   -4.9159    0.0000 C   0  0  0  0  0  0  0  0  0  0  0  0
    9.0040   -6.1534    0.0000 C   0  0  2  0  0  0  0  0  0  0  0  0
    8.2895   -5.7409    0.0000 C   0  0  0  0  0  0  0  0  0  0  0  0
    9.0040   -6.9784    0.0000 C   0  0  1  0  0  0  0  0  0  0  0  0
    9.0040   -7.8034    0.0000 H   0  0  0  0  0  0  0  0  0  0  0  0
    8.2895   -7.3909    0.0000 C   0  0  2  0  0  0  0  0  0  0  0  0
    7.5750   -6.9784    0.0000 C   0  0  0  0  0  0  0  0  0  0  0  0
    6.8606   -7.3909    0.0000 C   0  0  0  0  0  0  0  0  0  0  0  0
    6.8606   -8.2159    0.0000 C   0  0  2  0  0  0  0  0  0  0  0  0
    6.1461   -8.6284    0.0000 C   0  0  1  0  0  0  0  0  0  0  0  0
    6.1461   -7.8034    0.0000 C   0  0  0  0  0  0  0  0  0  0  0  0
    4.0027   -9.8659    0.0000 O   0  0  0  0  0  0  0  0  0  0  0  0
    9.6548   -6.2873    0.0000 O   0  0  0  0  0  0  0  0  0  0  0  0
    8.6648   -6.8231    0.0000 O   0  0  0  0  0  0  0  0  0  0  0  0
    6.8606   -9.0409    0.0000 H   0  0  0  0  0  0  0  0  0  0  0  0
  1  2  1  0  0  0  0
  2  3  1  0  0  0  0
  1  4  1  0  0  0  0
  4  5  1  6  0  0  0
  4  6  1  1  0  0  0
  4  7  1  0  0  0  0
  7  8  1  6  0  0  0
  7  9  1  0  0  0  0
  9 10  1  0  0  0  0
 10 11  1  0  0  0  0
 11 12  1  1  0  0  0
 11 13  1  0  0  0  0
 13 14  1  6  0  0  0
 13 15  1  0  0  0  0
 15 16  1  0  0  0  0
 16 17  1  0  0  0  0
 17 18  1  1  0  0  0
 17 19  1  0  0  0  0
 19 20  1  0  0  0  0
 20 21  1  0  0  0  0
 21 22  1  6  0  0  0
 21 23  1  0  0  0  0
 23 24  1  1  0  0  0
 23 25  1  0  0  0  0
 25 26  1  1  0  0  0
 17 25  1  0  0  0  0
 25 27  1  0  0  0  0
 13 27  1  0  0  0  0
 27 28  1  0  0  0  0
 28 29  2  0  0  0  0
 29 30  1  0  0  0  0
 11 30  1  0  0  0  0
 30 31  1  0  0  0  0
  3 31  1  0  0  0  0
  7 31  1  0  0  0  0
 31 32  1  1  0  0  0
  1 33  1  0  0  0  0
 18 34  2  0  0  0  0
 18 35  1  0  0  0  0
 27 35  1  6  0  0  0
 30 36  1  6  0  0  0
M  END
>  <cdx:fragmentId>
5

$$$$
