99646.cdx
  Mrv1902 05222410252D          

 37 40  0  0  0  0            999 V2000
    5.3674   -8.3737    0.0000 C   0  0  0  0  0  0  0  0  0  0  0  0
    5.3674   -9.1987    0.0000 C   0  0  0  0  0  0  0  0  0  0  0  0
    6.0819   -9.6112    0.0000 C   0  0  0  0  0  0  0  0  0  0  0  0
    6.7964   -9.1987    0.0000 C   0  0  0  0  0  0  0  0  0  0  0  0
    6.7964   -8.3737    0.0000 C   0  0  0  0  0  0  0  0  0  0  0  0
    6.0819   -7.9612    0.0000 C   0  0  0  0  0  0  0  0  0  0  0  0
    6.0819  -10.4363    0.0000 O   0  0  0  0  0  0  0  0  0  0  0  0
    6.7964  -10.8488    0.0000 C   0  0  0  0  0  0  0  0  0  0  0  0
    7.5108   -7.9612    0.0000 C   0  0  0  0  0  0  0  0  0  0  0  0
    7.5108   -7.1362    0.0000 C   0  0  0  0  0  0  0  0  0  0  0  0
    6.7964   -6.7237    0.0000 C   0  0  0  0  0  0  0  0  0  0  0  0
    8.2253   -8.3737    0.0000 O   0  0  0  0  0  0  0  0  0  0  0  0
    8.9398   -7.9612    0.0000 C   0  0  0  0  0  0  0  0  0  0  0  0
    8.9398   -7.1362    0.0000 C   0  0  0  0  0  0  0  0  0  0  0  0
    9.6543   -8.3737    0.0000 C   0  0  0  0  0  0  0  0  0  0  0  0
   10.3687   -7.9612    0.0000 C   0  0  0  0  0  0  0  0  0  0  0  0
   10.3687   -7.1362    0.0000 C   0  0  0  0  0  0  0  0  0  0  0  0
    9.6543   -6.7237    0.0000 C   0  0  0  0  0  0  0  0  0  0  0  0
   11.7977   -7.1362    0.0000 C   0  0  0  0  0  0  0  0  0  0  0  0
   11.0832   -6.7237    0.0000 C   0  0  0  0  0  0  0  0  0  0  0  0
    4.6530   -9.6112    0.0000 O   0  0  0  0  0  0  0  0  0  0  0  0
    6.7964   -5.8988    0.0000 O   0  0  0  0  0  0  0  0  0  0  0  0
    9.6543   -9.1987    0.0000 O   0  0  0  0  0  0  0  0  0  0  0  0
   10.3687   -9.6112    0.0000 C   0  0  0  0  0  0  0  0  0  0  0  0
   12.5121   -6.7237    0.0000 C   0  0  0  0  0  0  0  0  0  0  0  0
   13.2266   -7.1362    0.0000 O   0  0  0  0  0  0  0  0  0  0  0  0
    3.2288   -7.9730    0.0000 C   0  0  2  0  0  0  0  0  0  0  0  0
    2.5138   -8.3846    0.0000 C   0  0  2  0  0  0  0  0  0  0  0  0
    2.5128   -9.2096    0.0000 C   0  0  1  0  0  0  0  0  0  0  0  0
    3.2268   -9.6230    0.0000 C   0  0  2  0  0  0  0  0  0  0  0  0
    3.9418   -9.2114    0.0000 C   0  0  1  0  0  0  0  0  0  0  0  0
    3.9427   -8.3864    0.0000 O   0  0  0  0  0  0  0  0  0  0  0  0
    3.2298   -7.1480    0.0000 C   0  0  0  0  0  0  0  0  0  0  0  0
    1.7978   -9.6213    0.0000 O   0  0  0  0  0  0  0  0  0  0  0  0
    1.7998   -7.9713    0.0000 O   0  0  0  0  0  0  0  0  0  0  0  0
    3.2258  -10.4480    0.0000 O   0  0  0  0  0  0  0  0  0  0  0  0
    2.5158   -6.7346    0.0000 O   0  0  0  0  0  0  0  0  0  0  0  0
  1  2  2  0  0  0  0
  2  3  1  0  0  0  0
  3  4  2  0  0  0  0
  4  5  1  0  0  0  0
  5  6  2  0  0  0  0
  6  1  1  0  0  0  0
  3  7  1  0  0  0  0
  7  8  1  0  0  0  0
  5  9  1  0  0  0  0
  9 10  1  0  0  0  0
 10 11  1  0  0  0  0
  9 12  1  0  0  0  0
 12 13  1  0  0  0  0
 13 14  2  0  0  0  0
 13 15  1  0  0  0  0
 15 16  2  0  0  0  0
 16 17  1  0  0  0  0
 17 18  2  0  0  0  0
 18 14  1  0  0  0  0
 19 20  2  0  0  0  0
 20 17  1  0  0  0  0
  2 21  1  0  0  0  0
 10 14  1  0  0  0  0
 11 22  1  0  0  0  0
 15 23  1  0  0  0  0
 23 24  1  0  0  0  0
 19 25  1  0  0  0  0
 25 26  1  0  0  0  0
 27 28  1  0  0  0  0
 28 29  1  0  0  0  0
 29 30  1  0  0  0  0
 30 31  1  0  0  0  0
 31 32  1  0  0  0  0
 32 27  1  0  0  0  0
 27 33  1  1  0  0  0
 29 34  1  1  0  0  0
 28 35  1  6  0  0  0
 30 36  1  6  0  0  0
 33 37  1  0  0  0  0
 31 21  1  1  0  0  0
M  END
>  <cdx:fragmentId>
5

$$$$
