99649.cdx
  Mrv1902 05222410212D          

 23 24  0  0  0  0            999 V2000
    4.7624   -8.4425    0.0000 C   0  0  0  0  0  0  0  0  0  0  0  0
    4.7624   -9.2675    0.0000 C   0  0  0  0  0  0  0  0  0  0  0  0
    5.4769   -9.6800    0.0000 C   0  0  2  0  0  0  0  0  0  0  0  0
    6.1914   -9.2675    0.0000 C   0  0  0  0  0  0  0  0  0  0  0  0
    6.1914   -8.4425    0.0000 C   0  0  0  0  0  0  0  0  0  0  0  0
    5.4769   -8.0300    0.0000 C   0  0  0  0  0  0  0  0  0  0  0  0
    5.4769   -7.2050    0.0000 C   0  0  0  0  0  0  0  0  0  0  0  0
    6.9058   -8.0300    0.0000 O   0  0  0  0  0  0  0  0  0  0  0  0
    5.4769  -10.5050    0.0000 C   0  0  0  0  0  0  0  0  0  0  0  0
    6.1914  -10.9175    0.0000 C   0  0  0  0  0  0  0  0  0  0  0  0
    4.7624  -10.9175    0.0000 C   0  0  0  0  0  0  0  0  0  0  0  0
    6.9058   -9.6800    0.0000 O   0  0  0  0  0  0  0  0  0  0  0  0
    7.6203  -10.0925    0.0000 C   0  0  2  0  0  0  0  0  0  0  0  0
    7.6203  -10.9175    0.0000 C   0  0  2  0  0  0  0  0  0  0  0  0
    8.3348  -11.3300    0.0000 C   0  0  1  0  0  0  0  0  0  0  0  0
    9.0493  -10.9175    0.0000 C   0  0  2  0  0  0  0  0  0  0  0  0
    9.0493  -10.0925    0.0000 C   0  0  1  0  0  0  0  0  0  0  0  0
    8.3348   -9.6800    0.0000 O   0  0  0  0  0  0  0  0  0  0  0  0
    9.7637   -9.6800    0.0000 C   0  0  0  0  0  0  0  0  0  0  0  0
    8.3348  -12.1550    0.0000 O   0  0  0  0  0  0  0  0  0  0  0  0
    6.9058  -11.3300    0.0000 O   0  0  0  0  0  0  0  0  0  0  0  0
    9.7637  -11.3300    0.0000 O   0  0  0  0  0  0  0  0  0  0  0  0
   10.4782  -10.0925    0.0000 O   0  0  0  0  0  0  0  0  0  0  0  0
  1  2  1  0  0  0  0
  2  3  1  0  0  0  0
  3  4  1  0  0  0  0
  4  5  1  0  0  0  0
  5  6  1  0  0  0  0
  6  1  2  0  0  0  0
  6  7  1  0  0  0  0
  5  8  2  0  0  0  0
  3  9  1  6  0  0  0
  9 10  1  0  0  0  0
  9 11  1  0  0  0  0
  4 12  1  0  0  0  0
 13 12  1  1  0  0  0
 13 14  1  0  0  0  0
 14 15  1  0  0  0  0
 15 16  1  0  0  0  0
 16 17  1  0  0  0  0
 17 18  1  0  0  0  0
 18 13  1  0  0  0  0
 17 19  1  1  0  0  0
 15 20  1  1  0  0  0
 14 21  1  6  0  0  0
 16 22  1  6  0  0  0
 19 23  1  0  0  0  0
M  END
>  <cdx:fragmentId>
5

$$$$
