99651.cdx
  Mrv1902 05222410252D          

 36 40  0  0  0  0            999 V2000
    4.7962   -7.5937    0.0000 C   0  0  0  0  0  0  0  0  0  0  0  0
    4.0817   -8.0062    0.0000 C   0  0  0  0  0  0  0  0  0  0  0  0
    4.0817   -8.8312    0.0000 C   0  0  1  0  0  0  0  0  0  0  0  0
    4.7962   -9.2437    0.0000 C   0  0  1  0  0  0  0  0  0  0  0  0
    5.5107   -8.8312    0.0000 C   0  0  2  0  0  0  0  0  0  0  0  0
    6.2252   -9.2437    0.0000 C   0  0  0  0  0  0  0  0  0  0  0  0
    6.9396   -8.8312    0.0000 C   0  0  0  0  0  0  0  0  0  0  0  0
    6.9396   -8.0062    0.0000 C   0  0  1  0  0  0  0  0  0  0  0  0
    7.6541   -7.5937    0.0000 C   0  0  2  0  0  0  0  0  0  0  0  0
    8.3686   -8.0062    0.0000 C   0  0  0  0  0  0  0  0  0  0  0  0
    9.0830   -7.5937    0.0000 C   0  0  1  0  0  0  0  0  0  0  0  0
    9.0830   -6.7687    0.0000 C   0  0  1  0  0  0  0  0  0  0  0  0
    9.7975   -6.3562    0.0000 C   0  0  0  0  0  0  0  0  0  0  0  0
    9.7975   -5.5312    0.0000 C   0  0  0  0  0  0  0  0  0  0  0  0
    9.0830   -5.1187    0.0000 C   0  0  1  0  0  0  0  0  0  0  0  0
    8.3686   -5.5312    0.0000 C   0  0  0  0  0  0  0  0  0  0  0  0
    8.3686   -6.3562    0.0000 C   0  0  0  0  0  0  0  0  0  0  0  0
    7.6541   -6.7687    0.0000 C   0  0  0  0  0  0  0  0  0  0  0  0
    6.9396   -6.3562    0.0000 C   0  0  0  0  0  0  0  0  0  0  0  0
    6.2252   -6.7687    0.0000 C   0  0  0  0  0  0  0  0  0  0  0  0
    6.2252   -7.5937    0.0000 C   0  0  2  0  0  0  0  0  0  0  0  0
    5.5107   -8.0062    0.0000 C   0  0  1  0  0  0  0  0  0  0  0  0
    3.3673   -9.2437    0.0000 O   0  0  0  0  0  0  0  0  0  0  0  0
    9.7975   -8.0062    0.0000 O   0  0  0  0  0  0  0  0  0  0  0  0
    5.5107   -7.1812    0.0000 C   0  0  0  0  0  0  0  0  0  0  0  0
    8.6705   -4.4042    0.0000 C   0  0  0  0  0  0  0  0  0  0  0  0
    9.4955   -4.4042    0.0000 C   0  0  0  0  0  0  0  0  0  0  0  0
    7.6541   -8.4187    0.0000 C   0  0  0  0  0  0  0  0  0  0  0  0
    6.9396   -7.1812    0.0000 C   0  0  0  0  0  0  0  0  0  0  0  0
    4.3837   -9.9582    0.0000 C   0  0  0  0  0  0  0  0  0  0  0  0
    9.7975   -7.1812    0.0000 C   0  0  0  0  0  0  0  0  0  0  0  0
   10.5120   -6.7687    0.0000 O   0  0  0  0  0  0  0  0  0  0  0  0
    5.2087   -9.9582    0.0000 C   0  0  0  0  0  0  0  0  0  0  0  0
    4.7962  -10.6726    0.0000 O   0  0  0  0  0  0  0  0  0  0  0  0
    5.5107   -9.6562    0.0000 H   0  0  0  0  0  0  0  0  0  0  0  0
    6.2252   -8.4187    0.0000 H   0  0  0  0  0  0  0  0  0  0  0  0
  1  2  1  0  0  0  0
  2  3  1  0  0  0  0
  3  4  1  0  0  0  0
  4  5  1  0  0  0  0
  5  6  1  0  0  0  0
  6  7  1  0  0  0  0
  7  8  1  0  0  0  0
  8  9  1  0  0  0  0
  9 10  1  0  0  0  0
 10 11  1  0  0  0  0
 11 12  1  0  0  0  0
 12 13  1  0  0  0  0
 13 14  1  0  0  0  0
 14 15  1  0  0  0  0
 15 16  1  0  0  0  0
 16 17  1  0  0  0  0
 12 17  1  0  0  0  0
 17 18  2  0  0  0  0
  9 18  1  0  0  0  0
 18 19  1  0  0  0  0
 19 20  2  0  0  0  0
 20 21  1  0  0  0  0
  8 21  1  0  0  0  0
 21 22  1  0  0  0  0
  5 22  1  0  0  0  0
  1 22  1  0  0  0  0
  3 23  1  1  0  0  0
 11 24  1  1  0  0  0
 22 25  1  1  0  0  0
 15 26  1  1  0  0  0
 15 27  1  6  0  0  0
  9 28  1  6  0  0  0
  8 29  1  1  0  0  0
  4 30  1  1  0  0  0
 31 32  1  0  0  0  0
 12 31  1  1  0  0  0
 33 34  1  0  0  0  0
  4 33  1  6  0  0  0
  5 35  1  6  0  0  0
 21 36  1  6  0  0  0
M  END
>  <cdx:fragmentId>
5

$$$$
