996586.cdx
  Mrv1902 05222410242D          

 24 27  0  0  0  0            999 V2000
    9.2390  -11.4632    0.0000 C   0  0  0  0  0  0  0  0  0  0  0  0
    8.5294  -11.8841    0.0000 C   0  0  0  0  0  0  0  0  0  0  0  0
    8.5392  -12.7091    0.0000 C   0  0  0  0  0  0  0  0  0  0  0  0
    9.2585  -13.1131    0.0000 C   0  0  0  0  0  0  0  0  0  0  0  0
    9.9583  -11.8672    0.0000 C   0  0  0  0  0  0  0  0  0  0  0  0
    9.9680  -12.6922    0.0000 C   0  0  0  0  0  0  0  0  0  0  0  0
   10.7556  -12.9378    0.0000 O   0  0  0  0  0  0  0  0  0  0  0  0
   11.2326  -12.2647    0.0000 C   0  0  0  0  0  0  0  0  0  0  0  0
   10.7398  -11.6030    0.0000 O   0  0  0  0  0  0  0  0  0  0  0  0
    7.8297  -13.1300    0.0000 C   0  0  0  0  0  0  0  0  0  0  0  0
    4.9817  -13.9888    0.0000 O   0  0  0  0  0  0  0  0  0  0  0  0
    3.5236  -11.5309    0.0000 O   0  0  0  0  0  0  0  0  0  0  0  0
    3.5431  -13.1807    0.0000 C   0  0  0  0  0  0  0  0  0  0  0  0
    6.4106  -13.9719    0.0000 O   0  0  0  0  0  0  0  0  0  0  0  0
    6.3813  -11.4970    0.0000 O   0  0  0  0  0  0  0  0  0  0  0  0
    5.6717  -11.9180    0.0000 C   0  0  0  0  0  0  0  0  0  0  0  0
    4.9524  -11.5139    0.0000 C   0  0  0  0  0  0  0  0  0  0  0  0
    4.2429  -11.9349    0.0000 C   0  0  0  0  0  0  0  0  0  0  0  0
    4.2527  -12.7598    0.0000 C   0  0  0  0  0  0  0  0  0  0  0  0
    4.9720  -13.1638    0.0000 C   0  0  0  0  0  0  0  0  0  0  0  0
    5.6815  -12.7429    0.0000 C   0  0  0  0  0  0  0  0  0  0  0  0
    6.4008  -13.1469    0.0000 C   0  0  0  0  0  0  0  0  0  0  0  0
    7.1104  -12.7260    0.0000 C   0  0  0  0  0  0  0  0  0  0  0  0
    7.1006  -11.9011    0.0000 C   0  0  0  0  0  0  0  0  0  0  0  0
 23 10  1  0  0  0  0
 10  3  1  0  0  0  0
  4  6  2  0  0  0  0
  1  5  2  0  0  0  0
  2  1  1  0  0  0  0
  3  2  2  0  0  0  0
  4  3  1  0  0  0  0
  9  5  1  0  0  0  0
  6  5  1  0  0  0  0
  7  6  1  0  0  0  0
  8  7  1  0  0  0  0
  9  8  1  0  0  0  0
 20 11  1  0  0  0  0
 18 12  1  0  0  0  0
 19 13  1  0  0  0  0
 22 14  2  0  0  0  0
 24 15  1  0  0  0  0
 16 15  1  0  0  0  0
 21 16  2  0  0  0  0
 17 16  1  0  0  0  0
 18 17  2  0  0  0  0
 19 18  1  0  0  0  0
 20 19  2  0  0  0  0
 21 20  1  0  0  0  0
 22 21  1  0  0  0  0
 23 22  1  0  0  0  0
 24 23  1  0  0  0  0
M  END
>  <cdx:groupId>
34644

>  <cdx:fragmentId>
34572

$$$$
