99654.cdx
  Mrv1902 05222410232D          

 74 83  0  0  0  0            999 V2000
   13.6838   -9.0994    0.0000 C   0  0  1  0  0  0  0  0  0  0  0  0
   14.3952   -8.6818    0.0000 C   0  0  2  0  0  0  0  0  0  0  0  0
   15.1817   -8.9310    0.0000 C   0  0  0  0  0  0  0  0  0  0  0  0
   15.6618   -8.2601    0.0000 C   0  0  2  0  0  0  0  0  0  0  0  0
   16.4445   -7.9995    0.0000 O   0  0  0  0  0  0  0  0  0  0  0  0
   16.4386   -7.1745    0.0000 C   0  0  2  0  0  0  0  0  0  0  0  0
   15.6521   -6.9253    0.0000 C   0  0  2  0  0  0  0  0  0  0  0  0
   15.1720   -7.5962    0.0000 C   0  0  2  0  0  0  0  0  0  0  0  0
   14.3893   -7.8568    0.0000 C   0  0  1  0  0  0  0  0  0  0  0  0
   13.6719   -7.4494    0.0000 C   0  0  0  0  0  0  0  0  0  0  0  0
   12.9604   -7.8671    0.0000 C   0  0  0  0  0  0  0  0  0  0  0  0
   12.9663   -8.6921    0.0000 C   0  0  2  0  0  0  0  0  0  0  0  0
   12.2549   -9.1097    0.0000 C   0  0  1  0  0  0  0  0  0  0  0  0
   11.5374   -8.7024    0.0000 C   0  0  0  0  0  0  0  0  0  0  0  0
   10.8260   -9.1200    0.0000 C   0  0  0  0  0  0  0  0  0  0  0  0
   10.8319   -9.9450    0.0000 C   0  0  1  0  0  0  0  0  0  0  0  0
   11.5493  -10.3523    0.0000 C   0  0  0  0  0  0  0  0  0  0  0  0
   12.2608   -9.9347    0.0000 C   0  0  0  0  0  0  0  0  0  0  0  0
   12.9783  -10.3420    0.0000 C   0  0  0  0  0  0  0  0  0  0  0  0
   13.6897   -9.9244    0.0000 C   0  0  0  0  0  0  0  0  0  0  0  0
   16.3464   -6.3547    0.0000 O   0  0  0  0  0  0  0  0  0  0  0  0
   17.1947   -7.5046    0.0000 C   0  0  0  0  0  0  0  0  0  0  0  0
   17.8586   -7.0149    0.0000 C   0  0  0  0  0  0  0  0  0  0  0  0
   17.7664   -6.1951    0.0000 C   0  0  2  0  0  0  0  0  0  0  0  0
   17.0103   -5.8650    0.0000 C   0  0  0  0  0  0  0  0  0  0  0  0
   10.1204  -10.3627    0.0000 O   0  0  0  0  0  0  0  0  0  0  0  0
   12.2489   -8.2847    0.0000 C   0  0  0  0  0  0  0  0  0  0  0  0
   14.3893   -7.0318    0.0000 C   0  0  0  0  0  0  0  0  0  0  0  0
   15.3915   -6.1425    0.0000 C   0  0  0  0  0  0  0  0  0  0  0  0
   18.4303   -5.7053    0.0000 C   0  0  0  0  0  0  0  0  0  0  0  0
   13.6778   -8.2744    0.0000 H   0  0  0  0  0  0  0  0  0  0  0  0
   16.1515   -8.9240    0.0000 H   0  0  0  0  0  0  0  0  0  0  0  0
   14.8050   -6.8573    0.0000 O   0  0  0  0  0  0  0  0  0  0  0  0
   12.9723   -9.5170    0.0000 H   0  0  0  0  0  0  0  0  0  0  0  0
    9.4030   -9.9553    0.0000 C   0  0  2  0  0  0  0  0  0  0  0  0
    9.3941   -9.1304    0.0000 O   0  0  0  0  0  0  0  0  0  0  0  0
    8.6752   -8.7257    0.0000 C   0  0  1  0  0  0  0  0  0  0  0  0
    7.9652   -9.1304    0.0000 C   0  0  2  0  0  0  0  0  0  0  0  0
    7.9652   -9.9553    0.0000 C   0  0  1  0  0  0  0  0  0  0  0  0
    8.6752  -10.3600    0.0000 C   0  0  1  0  0  0  0  0  0  0  0  0
    8.6729   -7.9007    0.0000 C   0  0  0  0  0  0  0  0  0  0  0  0
    7.2519  -10.3698    0.0000 O   0  0  0  0  0  0  0  0  0  0  0  0
    8.6708  -11.1850    0.0000 O   0  0  0  0  0  0  0  0  0  0  0  0
    7.2519   -8.7159    0.0000 O   0  0  0  0  0  0  0  0  0  0  0  0
    7.9585   -7.4882    0.0000 O   0  0  0  0  0  0  0  0  0  0  0  0
    9.0680  -11.9081    0.0000 C   0  0  2  0  0  0  0  0  0  0  0  0
    8.6386  -12.6125    0.0000 O   0  0  0  0  0  0  0  0  0  0  0  0
    9.0339  -13.3366    0.0000 C   0  0  2  0  0  0  0  0  0  0  0  0
    9.8645  -13.3465    0.0000 C   0  0  1  0  0  0  0  0  0  0  0  0
   10.2883  -12.6387    0.0000 C   0  0  2  0  0  0  0  0  0  0  0  0
    9.8873  -11.9112    0.0000 C   0  0  1  0  0  0  0  0  0  0  0  0
   10.2671  -14.0667    0.0000 O   0  0  0  0  0  0  0  0  0  0  0  0
    8.6087  -14.0436    0.0000 C   0  0  0  0  0  0  0  0  0  0  0  0
   11.1132  -12.6535    0.0000 O   0  0  0  0  0  0  0  0  0  0  0  0
   10.3083  -11.2017    0.0000 O   0  0  0  0  0  0  0  0  0  0  0  0
   14.4012   -9.5067    0.0000 H   0  0  0  0  0  0  0  0  0  0  0  0
    6.4269   -8.7134    0.0000 C   0  0  2  0  0  0  0  0  0  0  0  0
    5.9423   -8.0456    0.0000 O   0  0  0  0  0  0  0  0  0  0  0  0
    5.1576   -8.3001    0.0000 C   0  0  2  0  0  0  0  0  0  0  0  0
    5.1576   -9.1251    0.0000 C   0  0  1  0  0  0  0  0  0  0  0  0
    5.9423   -9.3805    0.0000 C   0  0  1  0  0  0  0  0  0  0  0  0
    6.1972  -10.1652    0.0000 O   0  0  0  0  0  0  0  0  0  0  0  0
    4.4900   -9.6099    0.0000 O   0  0  0  0  0  0  0  0  0  0  0  0
    4.4903   -7.8150    0.0000 C   0  0  0  0  0  0  0  0  0  0  0  0
    3.7365   -8.1504    0.0000 O   0  0  0  0  0  0  0  0  0  0  0  0
    3.0692   -7.6653    0.0000 C   0  0  2  0  0  0  0  0  0  0  0  0
    3.1557   -6.8448    0.0000 O   0  0  0  0  0  0  0  0  0  0  0  0
    2.4884   -6.3597    0.0000 C   0  0  0  0  0  0  0  0  0  0  0  0
    1.7346   -6.6950    0.0000 C   0  0  2  0  0  0  0  0  0  0  0  0
    1.6481   -7.5155    0.0000 C   0  0  1  0  0  0  0  0  0  0  0  0
    2.3154   -8.0006    0.0000 C   0  0  1  0  0  0  0  0  0  0  0  0
    2.2289   -8.8210    0.0000 O   0  0  0  0  0  0  0  0  0  0  0  0
    0.8943   -7.8508    0.0000 O   0  0  0  0  0  0  0  0  0  0  0  0
    1.0673   -6.2099    0.0000 O   0  0  0  0  0  0  0  0  0  0  0  0
  1  2  1  0  0  0  0
  2  3  1  0  0  0  0
  3  4  1  0  0  0  0
  4  5  1  0  0  0  0
  6  5  1  6  0  0  0
  6  7  1  0  0  0  0
  7  8  1  0  0  0  0
  8  9  1  0  0  0  0
  9 10  1  0  0  0  0
 10 11  1  0  0  0  0
 11 12  1  0  0  0  0
 12 13  1  0  0  0  0
 13 14  1  0  0  0  0
 14 15  1  0  0  0  0
 15 16  1  0  0  0  0
 16 17  1  0  0  0  0
 17 18  1  0  0  0  0
 18 19  2  0  0  0  0
 19 20  1  0  0  0  0
  1 20  1  0  0  0  0
  1 12  1  0  0  0  0
 13 18  1  0  0  0  0
  2  9  1  0  0  0  0
  4  8  1  0  0  0  0
 22 23  1  0  0  0  0
 23 24  1  0  0  0  0
 24 25  1  0  0  0  0
 21 25  1  0  0  0  0
  6 21  1  0  0  0  0
  6 22  1  0  0  0  0
 16 26  1  1  0  0  0
 13 27  1  1  0  0  0
  9 28  1  1  0  0  0
  7 29  1  6  0  0  0
 24 30  1  6  0  0  0
  1 31  1  1  0  0  0
  4 32  1  6  0  0  0
  8 33  1  6  0  0  0
 12 34  1  6  0  0  0
 35 26  1  1  0  0  0
 35 36  1  0  0  0  0
 36 37  1  0  0  0  0
 37 38  1  0  0  0  0
 38 39  1  0  0  0  0
 39 40  1  0  0  0  0
 40 35  1  0  0  0  0
 37 41  1  1  0  0  0
 39 42  1  1  0  0  0
 40 43  1  6  0  0  0
 38 44  1  6  0  0  0
 41 45  1  0  0  0  0
 46 43  1  1  0  0  0
 46 47  1  0  0  0  0
 47 48  1  0  0  0  0
 48 49  1  0  0  0  0
 49 50  1  0  0  0  0
 50 51  1  0  0  0  0
 51 46  1  0  0  0  0
 49 52  1  1  0  0  0
 48 53  1  6  0  0  0
 50 54  1  6  0  0  0
 51 55  1  6  0  0  0
  2 56  1  6  0  0  0
 57 44  1  1  0  0  0
 57 58  1  0  0  0  0
 58 59  1  0  0  0  0
 59 60  1  0  0  0  0
 60 61  1  0  0  0  0
 61 57  1  0  0  0  0
 61 62  1  6  0  0  0
 60 63  1  1  0  0  0
 59 64  1  6  0  0  0
 64 65  1  0  0  0  0
 66 65  1  1  0  0  0
 66 67  1  0  0  0  0
 67 68  1  0  0  0  0
 68 69  1  0  0  0  0
 69 70  1  0  0  0  0
 70 71  1  0  0  0  0
 71 66  1  0  0  0  0
 71 72  1  6  0  0  0
 70 73  1  1  0  0  0
 69 74  1  6  0  0  0
M  END
>  <cdx:fragmentId>
5

$$$$
