99652.cdx
  Mrv1902 05222410252D          

 24 27  0  0  0  0            999 V2000
    5.8226   -4.3956    0.0000 N   0  0  0  0  0  0  0  0  0  0  0  0
    6.4900   -4.8805    0.0000 C   0  0  0  0  0  0  0  0  0  0  0  0
    6.2351   -5.6651    0.0000 C   0  0  0  0  0  0  0  0  0  0  0  0
    5.4101   -5.6651    0.0000 C   0  0  0  0  0  0  0  0  0  0  0  0
    4.8580   -6.2782    0.0000 C   0  0  0  0  0  0  0  0  0  0  0  0
    4.0510   -6.1067    0.0000 C   0  0  0  0  0  0  0  0  0  0  0  0
    3.7961   -5.3221    0.0000 C   0  0  0  0  0  0  0  0  0  0  0  0
    4.3481   -4.7090    0.0000 C   0  0  0  0  0  0  0  0  0  0  0  0
    5.1551   -4.8805    0.0000 C   0  0  0  0  0  0  0  0  0  0  0  0
    7.2970   -4.7090    0.0000 C   0  0  0  0  0  0  0  0  0  0  0  0
    6.7871   -6.2782    0.0000 C   0  0  0  0  0  0  0  0  0  0  0  0
    7.5941   -6.1067    0.0000 C   0  0  0  0  0  0  0  0  0  0  0  0
    7.8490   -5.3221    0.0000 N   0  0  0  0  0  0  0  0  0  0  0  0
    7.5519   -3.9243    0.0000 O   0  0  0  0  0  0  0  0  0  0  0  0
    8.6560   -5.1505    0.0000 C   0  0  0  0  0  0  0  0  0  0  0  0
    9.2393   -5.7339    0.0000 C   0  0  0  0  0  0  0  0  0  0  0  0
    9.0258   -6.5308    0.0000 C   0  0  0  0  0  0  0  0  0  0  0  0
    9.6092   -7.1141    0.0000 C   0  0  0  0  0  0  0  0  0  0  0  0
   10.4061   -6.9006    0.0000 C   0  0  0  0  0  0  0  0  0  0  0  0
   10.6196   -6.1037    0.0000 C   0  0  0  0  0  0  0  0  0  0  0  0
   10.0362   -5.5204    0.0000 C   0  0  0  0  0  0  0  0  0  0  0  0
    8.8695   -4.3536    0.0000 O   0  0  0  0  0  0  0  0  0  0  0  0
    8.2289   -6.7443    0.0000 N   0  0  0  0  0  0  0  0  0  0  0  0
    8.0154   -7.5412    0.0000 C   0  0  0  0  0  0  0  0  0  0  0  0
  1  2  1  0  0  0  0
  2  3  2  0  0  0  0
  3  4  1  0  0  0  0
  4  5  1  0  0  0  0
  5  6  2  0  0  0  0
  6  7  1  0  0  0  0
  7  8  2  0  0  0  0
  8  9  1  0  0  0  0
  1  9  1  0  0  0  0
  4  9  2  0  0  0  0
 11 12  1  0  0  0  0
 12 13  1  0  0  0  0
 10 13  1  0  0  0  0
 10  2  1  0  0  0  0
 11  3  1  0  0  0  0
 10 14  2  0  0  0  0
 15 16  1  0  0  0  0
 16 17  1  0  0  0  0
 17 18  2  0  0  0  0
 18 19  1  0  0  0  0
 19 20  2  0  0  0  0
 20 21  1  0  0  0  0
 16 21  2  0  0  0  0
 15 22  2  0  0  0  0
 23 24  1  0  0  0  0
 17 23  1  0  0  0  0
 13 15  1  0  0  0  0
M  END
>  <cdx:groupId>
77

>  <cdx:fragmentId>
5

$$$$
