99658.cdx
  Mrv1902 05222410232D          

 25 27  0  0  0  0            999 V2000
    6.6649   -8.9931    0.0000 C   0  0  0  0  0  0  0  0  0  0  0  0
    6.6619   -8.1681    0.0000 C   0  0  0  0  0  0  0  0  0  0  0  0
    7.3749   -7.7530    0.0000 C   0  0  0  0  0  0  0  0  0  0  0  0
    8.0908   -8.1629    0.0000 C   0  0  0  0  0  0  0  0  0  0  0  0
    8.8038   -7.7479    0.0000 C   0  0  0  0  0  0  0  0  0  0  0  0
    9.5198   -8.1578    0.0000 C   0  0  0  0  0  0  0  0  0  0  0  0
    9.5227   -8.9828    0.0000 C   0  0  0  0  0  0  0  0  0  0  0  0
    8.8097   -9.3979    0.0000 C   0  0  0  0  0  0  0  0  0  0  0  0
    8.0938   -8.9879    0.0000 C   0  0  0  0  0  0  0  0  0  0  0  0
    7.3808   -9.4030    0.0000 O   0  0  0  0  0  0  0  0  0  0  0  0
   10.2328   -7.7428    0.0000 C   0  0  0  0  0  0  0  0  0  0  0  0
   10.2298   -6.9178    0.0000 C   0  0  0  0  0  0  0  0  0  0  0  0
    9.5139   -6.5078    0.0000 C   0  0  0  0  0  0  0  0  0  0  0  0
    8.8009   -6.9229    0.0000 O   0  0  0  0  0  0  0  0  0  0  0  0
    9.5109   -5.6828    0.0000 O   0  0  0  0  0  0  0  0  0  0  0  0
    6.2549   -9.7090    0.0000 C   0  0  0  0  0  0  0  0  0  0  0  0
    5.8399   -8.9960    0.0000 C   0  0  0  0  0  0  0  0  0  0  0  0
    7.3719   -6.9280    0.0000 O   0  0  0  0  0  0  0  0  0  0  0  0
    5.9460   -7.7581    0.0000 O   0  0  0  0  0  0  0  0  0  0  0  0
    5.2330   -8.1732    0.0000 C   0  0  0  0  0  0  0  0  0  0  0  0
    4.5170   -7.7632    0.0000 C   0  0  0  0  0  0  0  0  0  0  0  0
    5.2359   -8.9982    0.0000 O   0  0  0  0  0  0  0  0  0  0  0  0
    3.8040   -8.1783    0.0000 C   0  0  0  0  0  0  0  0  0  0  0  0
    3.0858   -7.7725    0.0000 C   0  0  0  0  0  0  0  0  0  0  0  0
    3.8094   -9.0033    0.0000 C   0  0  0  0  0  0  0  0  0  0  0  0
  1  2  1  0  0  0  0
  2  3  1  0  0  0  0
  3  4  1  0  0  0  0
  4  5  1  0  0  0  0
  5  6  2  0  0  0  0
  6  7  1  0  0  0  0
  7  8  2  0  0  0  0
  8  9  1  0  0  0  0
  4  9  2  0  0  0  0
  9 10  1  0  0  0  0
  1 10  1  0  0  0  0
 11 12  2  0  0  0  0
 12 13  1  0  0  0  0
 13 14  1  0  0  0  0
 14  5  1  0  0  0  0
 11  6  1  0  0  0  0
 13 15  2  0  0  0  0
  1 16  1  0  0  0  0
  1 17  1  0  0  0  0
  3 18  2  0  0  0  0
  2 19  1  0  0  0  0
 19 20  1  0  0  0  0
 20 21  1  0  0  0  0
 20 22  2  0  0  0  0
 21 23  1  0  0  0  0
 23 24  1  0  0  0  0
 23 25  1  0  0  0  0
M  END
>  <cdx:fragmentId>
5

$$$$
