99655.cdx
  Mrv1902 05222410232D          

 29 33  0  0  0  0            999 V2000
    4.7624   -8.2775    0.0000 C   0  0  2  0  0  0  0  0  0  0  0  0
    4.7624   -9.1025    0.0000 C   0  0  0  0  0  0  0  0  0  0  0  0
    5.4769   -9.5150    0.0000 C   0  0  0  0  0  0  0  0  0  0  0  0
    6.1914   -9.1025    0.0000 C   0  0  2  0  0  0  0  0  0  0  0  0
    6.2837   -8.3874    0.0000 C   0  0  1  0  0  0  0  0  0  0  0  0
    5.4769   -7.8650    0.0000 C   0  0  1  0  0  0  0  0  0  0  0  0
    5.6484  -10.3220    0.0000 C   0  0  0  0  0  0  0  0  0  0  0  0
    6.4689  -10.4082    0.0000 O   0  0  0  0  0  0  0  0  0  0  0  0
    6.8045   -9.6545    0.0000 C   0  0  0  0  0  0  0  0  0  0  0  0
    5.0964  -10.9351    0.0000 O   0  0  0  0  0  0  0  0  0  0  0  0
    5.4769   -7.0400    0.0000 C   0  0  0  0  0  0  0  0  0  0  0  0
    6.0603   -6.4566    0.0000 C   0  0  0  0  0  0  0  0  0  0  0  0
    5.8467   -5.6597    0.0000 C   0  0  0  0  0  0  0  0  0  0  0  0
    4.7624   -7.4525    0.0000 H   0  0  0  0  0  0  0  0  0  0  0  0
    5.5049   -8.2363    0.0000 C   0  0  0  0  0  0  0  0  0  0  0  0
    5.9306   -8.4975    0.0000 C   0  0  0  0  0  0  0  0  0  0  0  0
    7.1085   -8.3689    0.0000 C   0  0  0  0  0  0  0  0  0  0  0  0
    7.3459   -7.5788    0.0000 C   0  0  0  0  0  0  0  0  0  0  0  0
    6.6678   -7.1089    0.0000 C   0  0  0  0  0  0  0  0  0  0  0  0
    6.0113   -7.6086    0.0000 O   0  0  0  0  0  0  0  0  0  0  0  0
    7.6741   -8.9695    0.0000 C   0  0  0  0  0  0  0  0  0  0  0  0
    8.4771   -8.7800    0.0000 C   0  0  0  0  0  0  0  0  0  0  0  0
    8.7144   -7.9899    0.0000 C   0  0  0  0  0  0  0  0  0  0  0  0
    8.1488   -7.3893    0.0000 C   0  0  0  0  0  0  0  0  0  0  0  0
    6.6493   -6.2841    0.0000 O   0  0  0  0  0  0  0  0  0  0  0  0
    7.6114   -9.4830    0.0000 C   0  0  0  0  0  0  0  0  0  0  0  0
    8.1635  -10.0961    0.0000 C   0  0  0  0  0  0  0  0  0  0  0  0
    8.9704   -9.9246    0.0000 C   0  0  0  0  0  0  0  0  0  0  0  0
    9.5225  -10.5377    0.0000 C   0  0  0  0  0  0  0  0  0  0  0  0
  1  2  1  0  0  0  0
  2  3  2  0  0  0  0
  3  4  1  0  0  0  0
  4  5  1  0  0  0  0
  5  6  1  0  0  0  0
  6  1  1  0  0  0  0
  3  7  1  0  0  0  0
  7  8  1  0  0  0  0
  8  9  1  0  0  0  0
  9  4  1  0  0  0  0
  7 10  2  0  0  0  0
  6 11  1  6  0  0  0
 11 12  1  0  0  0  0
 12 13  1  0  0  0  0
  6 14  1  1  0  0  0
  1 15  1  1  0  0  0
  4 16  1  1  0  0  0
 15 16  1  1  0  0  0
  5 17  1  1  0  0  0
 17 18  2  0  0  0  0
 18 19  1  0  0  0  0
 19 20  1  0  0  0  0
  5 20  1  6  0  0  0
 17 21  1  0  0  0  0
 21 22  1  0  0  0  0
 22 23  1  0  0  0  0
 23 24  2  0  0  0  0
 24 18  1  0  0  0  0
 19 25  2  0  0  0  0
  9 26  2  0  0  0  0
 26 27  1  0  0  0  0
 27 28  1  0  0  0  0
 28 29  1  0  0  0  0
M  END
>  <cdx:fragmentId>
5

$$$$
