99656.cdx
  Mrv1902 05222410242D          

 30 34  0  0  0  0            999 V2000
    6.5219   -7.7963    0.0000 C   0  0  2  0  0  0  0  0  0  0  0  0
    6.5219   -8.6212    0.0000 C   0  0  1  0  0  0  0  0  0  0  0  0
    7.3469   -8.6212    0.0000 C   0  0  1  0  0  0  0  0  0  0  0  0
    7.3469   -7.7963    0.0000 C   0  0  1  0  0  0  0  0  0  0  0  0
    8.1617   -7.9253    0.0000 O   0  0  0  0  0  0  0  0  0  0  0  0
    8.5363   -7.1902    0.0000 C   0  0  0  0  0  0  0  0  0  0  0  0
    7.9529   -6.6069    0.0000 C   0  0  0  0  0  0  0  0  0  0  0  0
    7.2178   -6.9814    0.0000 C   0  0  0  0  0  0  0  0  0  0  0  0
    7.9961   -5.7830    0.0000 C   0  0  0  0  0  0  0  0  0  0  0  0
    7.3042   -5.3337    0.0000 C   0  0  0  0  0  0  0  0  0  0  0  0
    6.5691   -5.7082    0.0000 C   0  0  0  0  0  0  0  0  0  0  0  0
    6.5259   -6.5321    0.0000 C   0  0  0  0  0  0  0  0  0  0  0  0
    5.7071   -8.4922    0.0000 C   0  0  0  0  0  0  0  0  0  0  0  0
    5.3325   -9.2273    0.0000 C   0  0  0  0  0  0  0  0  0  0  0  0
    5.9159   -9.8106    0.0000 C   0  0  0  0  0  0  0  0  0  0  0  0
    6.6510   -9.4361    0.0000 O   0  0  0  0  0  0  0  0  0  0  0  0
    5.2577   -7.8003    0.0000 C   0  0  0  0  0  0  0  0  0  0  0  0
    4.4339   -7.8435    0.0000 C   0  0  0  0  0  0  0  0  0  0  0  0
    4.0593   -8.5785    0.0000 C   0  0  0  0  0  0  0  0  0  0  0  0
    4.5086   -9.2704    0.0000 C   0  0  0  0  0  0  0  0  0  0  0  0
    5.7868  -10.6255    0.0000 O   0  0  0  0  0  0  0  0  0  0  0  0
    5.9385   -7.2129    0.0000 C   0  0  0  0  0  0  0  0  0  0  0  0
    5.9385   -6.3879    0.0000 C   0  0  0  0  0  0  0  0  0  0  0  0
    5.2241   -5.9754    0.0000 C   0  0  0  0  0  0  0  0  0  0  0  0
    5.7250   -8.0098    0.0000 H   0  0  0  0  0  0  0  0  0  0  0  0
    7.9303   -9.2046    0.0000 C   0  0  0  0  0  0  0  0  0  0  0  0
    7.7167  -10.0015    0.0000 C   0  0  0  0  0  0  0  0  0  0  0  0
    8.3001  -10.5849    0.0000 C   0  0  0  0  0  0  0  0  0  0  0  0
    8.1719   -8.6212    0.0000 H   0  0  0  0  0  0  0  0  0  0  0  0
    9.3511   -7.0612    0.0000 O   0  0  0  0  0  0  0  0  0  0  0  0
  1  2  1  0  0  0  0
  2  3  1  0  0  0  0
  3  4  1  0  0  0  0
  4  1  1  0  0  0  0
  4  5  1  6  0  0  0
  5  6  1  0  0  0  0
  6  7  1  0  0  0  0
  7  8  2  0  0  0  0
  4  8  1  1  0  0  0
  7  9  1  0  0  0  0
  9 10  2  0  0  0  0
 10 11  1  0  0  0  0
 11 12  1  0  0  0  0
 12  8  1  0  0  0  0
  2 13  1  1  0  0  0
 13 14  2  0  0  0  0
 14 15  1  0  0  0  0
 15 16  1  0  0  0  0
  2 16  1  6  0  0  0
 13 17  1  0  0  0  0
 17 18  1  0  0  0  0
 18 19  1  0  0  0  0
 19 20  2  0  0  0  0
 20 14  1  0  0  0  0
 15 21  2  0  0  0  0
  1 22  1  1  0  0  0
 22 23  1  0  0  0  0
 23 24  1  0  0  0  0
  1 25  1  6  0  0  0
  3 26  1  1  0  0  0
 26 27  1  0  0  0  0
 27 28  1  0  0  0  0
  3 29  1  6  0  0  0
  6 30  2  0  0  0  0
M  END
>  <cdx:fragmentId>
5

$$$$
