99663.cdx
  Mrv1902 05222410212D          

 64 71  0  0  0  0            999 V2000
    7.1641   -7.5844    0.0000 C   0  0  0  0  0  0  0  0  0  0  0  0
    7.1641   -8.4094    0.0000 C   0  0  0  0  0  0  0  0  0  0  0  0
    6.4496   -8.8219    0.0000 C   0  0  0  0  0  0  0  0  0  0  0  0
    5.7351   -8.4094    0.0000 C   0  0  0  0  0  0  0  0  0  0  0  0
    5.0207   -8.8219    0.0000 C   0  0  0  0  0  0  0  0  0  0  0  0
    4.3062   -8.4094    0.0000 C   0  0  0  0  0  0  0  0  0  0  0  0
    4.3062   -7.5844    0.0000 C   0  0  0  0  0  0  0  0  0  0  0  0
    5.0207   -7.1719    0.0000 C   0  0  0  0  0  0  0  0  0  0  0  0
    5.7351   -7.5844    0.0000 C   0  0  0  0  0  0  0  0  0  0  0  0
    6.4496   -7.1719    0.0000 O   0  0  0  0  0  0  0  0  0  0  0  0
    7.8786   -8.8219    0.0000 O   0  0  0  0  0  0  0  0  0  0  0  0
    5.0207   -9.6469    0.0000 O   0  0  0  0  0  0  0  0  0  0  0  0
    3.5917   -7.1719    0.0000 O   0  0  0  0  0  0  0  0  0  0  0  0
    7.8786   -7.1719    0.0000 C   0  0  0  0  0  0  0  0  0  0  0  0
    7.8786   -6.3469    0.0000 C   0  0  0  0  0  0  0  0  0  0  0  0
    8.5930   -5.9344    0.0000 C   0  0  0  0  0  0  0  0  0  0  0  0
    9.3075   -6.3469    0.0000 C   0  0  0  0  0  0  0  0  0  0  0  0
    9.3075   -7.1719    0.0000 C   0  0  0  0  0  0  0  0  0  0  0  0
    8.5930   -7.5844    0.0000 C   0  0  0  0  0  0  0  0  0  0  0  0
   10.0220   -5.9344    0.0000 O   0  0  0  0  0  0  0  0  0  0  0  0
    8.6216  -10.6919    0.0000 C   0  0  0  0  0  0  0  0  0  0  0  0
    8.6216  -11.5169    0.0000 C   0  0  0  0  0  0  0  0  0  0  0  0
    7.9071  -11.9294    0.0000 C   0  0  0  0  0  0  0  0  0  0  0  0
    7.1926  -11.5169    0.0000 C   0  0  0  0  0  0  0  0  0  0  0  0
    6.4782  -11.9294    0.0000 C   0  0  0  0  0  0  0  0  0  0  0  0
    5.7637  -11.5169    0.0000 C   0  0  0  0  0  0  0  0  0  0  0  0
    5.7637  -10.6919    0.0000 C   0  0  0  0  0  0  0  0  0  0  0  0
    6.4782  -10.2794    0.0000 C   0  0  0  0  0  0  0  0  0  0  0  0
    7.1926  -10.6919    0.0000 C   0  0  0  0  0  0  0  0  0  0  0  0
    7.9071  -10.2794    0.0000 O   0  3  0  0  0  0  0  0  0  0  0  0
    9.3361  -11.9294    0.0000 O   0  0  0  0  0  0  0  0  0  0  0  0
    6.4782  -12.7544    0.0000 O   0  0  0  0  0  0  0  0  0  0  0  0
    5.0492  -10.2794    0.0000 O   0  0  0  0  0  0  0  0  0  0  0  0
   10.0505   -8.2169    0.0000 O   0  0  0  0  0  0  0  0  0  0  0  0
   11.4795   -9.0419    0.0000 O   0  0  0  0  0  0  0  0  0  0  0  0
   10.0505  -10.6919    0.0000 C   0  0  0  0  0  0  0  0  0  0  0  0
   10.7650  -10.2794    0.0000 C   0  0  0  0  0  0  0  0  0  0  0  0
   10.7650   -9.4544    0.0000 C   0  0  0  0  0  0  0  0  0  0  0  0
   10.0505   -9.0419    0.0000 C   0  0  0  0  0  0  0  0  0  0  0  0
    9.3361   -9.4544    0.0000 C   0  0  0  0  0  0  0  0  0  0  0  0
    9.3361  -10.2794    0.0000 C   0  0  0  0  0  0  0  0  0  0  0  0
    8.6164  -13.9993    0.0000 C   0  0  0  0  0  0  0  0  0  0  0  0
    9.3306  -14.4122    0.0000 C   0  0  0  0  0  0  0  0  0  0  0  0
   10.0454  -14.0002    0.0000 C   0  0  0  0  0  0  0  0  0  0  0  0
   10.0459  -13.1752    0.0000 C   0  0  0  0  0  0  0  0  0  0  0  0
    9.3316  -12.7622    0.0000 C   0  0  0  0  0  0  0  0  0  0  0  0
    8.6169  -13.1743    0.0000 O   0  0  0  0  0  0  0  0  0  0  0  0
    7.9017  -14.4114    0.0000 C   0  0  0  0  0  0  0  0  0  0  0  0
    9.3301  -15.2372    0.0000 O   0  0  0  0  0  0  0  0  0  0  0  0
   10.7596  -14.4131    0.0000 O   0  0  0  0  0  0  0  0  0  0  0  0
   10.7606  -12.7631    0.0000 O   0  0  0  0  0  0  0  0  0  0  0  0
    7.9012  -15.2364    0.0000 O   0  0  0  0  0  0  0  0  0  0  0  0
    4.3321  -13.1669    0.0000 C   0  0  0  0  0  0  0  0  0  0  0  0
    4.3321  -13.9919    0.0000 C   0  0  0  0  0  0  0  0  0  0  0  0
    5.0466  -14.4044    0.0000 C   0  0  0  0  0  0  0  0  0  0  0  0
    5.7611  -13.9919    0.0000 C   0  0  0  0  0  0  0  0  0  0  0  0
    5.7611  -13.1669    0.0000 C   0  0  0  0  0  0  0  0  0  0  0  0
    5.0466  -12.7544    0.0000 O   0  0  0  0  0  0  0  0  0  0  0  0
    3.6176  -12.7544    0.0000 C   0  0  0  0  0  0  0  0  0  0  0  0
    3.6176  -14.4044    0.0000 O   0  0  0  0  0  0  0  0  0  0  0  0
    5.0466  -15.2294    0.0000 O   0  0  0  0  0  0  0  0  0  0  0  0
    6.4755  -14.4044    0.0000 O   0  0  0  0  0  0  0  0  0  0  0  0
    2.9032  -13.1669    0.0000 O   0  0  0  0  0  0  0  0  0  0  0  0
   11.4795  -10.6919    0.0000 O   0  0  0  0  0  0  0  0  0  0  0  0
  1  2  1  0  0  0  0
  2  3  1  0  0  0  0
  3  4  1  0  0  0  0
  4  5  1  0  0  0  0
  5  6  2  0  0  0  0
  6  7  1  0  0  0  0
  7  8  2  0  0  0  0
  8  9  1  0  0  0  0
  4  9  2  0  0  0  0
  9 10  1  0  0  0  0
  1 10  1  0  0  0  0
  2 11  1  0  0  0  0
  5 12  1  0  0  0  0
  7 13  1  0  0  0  0
 14 15  1  0  0  0  0
 15 16  2  0  0  0  0
 16 17  1  0  0  0  0
 17 18  2  0  0  0  0
 18 19  1  0  0  0  0
 14 19  2  0  0  0  0
 17 20  1  0  0  0  0
  1 14  1  0  0  0  0
 39 34  1  0  0  0  0
 38 35  1  0  0  0  0
 41 36  2  0  0  0  0
 37 36  1  0  0  0  0
 38 37  2  0  0  0  0
 39 38  1  0  0  0  0
 40 39  2  0  0  0  0
 41 40  1  0  0  0  0
 21 22  1  0  0  0  0
 22 23  2  0  0  0  0
 23 24  1  0  0  0  0
 24 25  1  0  0  0  0
 25 26  2  0  0  0  0
 26 27  1  0  0  0  0
 27 28  2  0  0  0  0
 28 29  1  0  0  0  0
 24 29  2  0  0  0  0
 29 30  1  0  0  0  0
 21 30  2  0  0  0  0
 22 31  1  0  0  0  0
 25 32  1  0  0  0  0
 27 33  1  0  0  0  0
 21 41  1  0  0  0  0
  3 28  1  0  0  0  0
 42 43  1  0  0  0  0
 43 44  1  0  0  0  0
 44 45  1  0  0  0  0
 45 46  1  0  0  0  0
 46 47  1  0  0  0  0
 47 42  1  0  0  0  0
 42 48  1  0  0  0  0
 43 49  1  0  0  0  0
 44 50  1  0  0  0  0
 45 51  1  0  0  0  0
 48 52  1  0  0  0  0
 53 54  1  0  0  0  0
 54 55  1  0  0  0  0
 55 56  1  0  0  0  0
 56 57  1  0  0  0  0
 57 58  1  0  0  0  0
 58 53  1  0  0  0  0
 53 59  1  0  0  0  0
 54 60  1  0  0  0  0
 55 61  1  0  0  0  0
 56 62  1  0  0  0  0
 59 63  1  0  0  0  0
 57 32  1  0  0  0  0
 46 31  1  0  0  0  0
 37 64  1  0  0  0  0
M  CHG  1  30   1
M  END
>  <cdx:fragmentId>
301

$$$$
