99672.cdx
  Mrv1902 05222410222D          

 65 72  0  0  0  0            999 V2000
    7.2229   -4.8485    0.0000 C   0  0  0  0  0  0  0  0  0  0  0  0
    7.2229   -5.6735    0.0000 C   0  0  0  0  0  0  0  0  0  0  0  0
    6.5084   -6.0860    0.0000 C   0  0  0  0  0  0  0  0  0  0  0  0
    5.7939   -5.6735    0.0000 C   0  0  0  0  0  0  0  0  0  0  0  0
    5.0795   -6.0860    0.0000 C   0  0  0  0  0  0  0  0  0  0  0  0
    4.3650   -5.6735    0.0000 C   0  0  0  0  0  0  0  0  0  0  0  0
    4.3650   -4.8485    0.0000 C   0  0  0  0  0  0  0  0  0  0  0  0
    5.0795   -4.4360    0.0000 C   0  0  0  0  0  0  0  0  0  0  0  0
    5.7939   -4.8485    0.0000 C   0  0  0  0  0  0  0  0  0  0  0  0
    6.5084   -4.4360    0.0000 O   0  0  0  0  0  0  0  0  0  0  0  0
    7.9374   -6.0860    0.0000 O   0  0  0  0  0  0  0  0  0  0  0  0
    5.0795   -6.9110    0.0000 O   0  0  0  0  0  0  0  0  0  0  0  0
    3.6505   -4.4360    0.0000 O   0  0  0  0  0  0  0  0  0  0  0  0
    7.9374   -4.4360    0.0000 C   0  0  0  0  0  0  0  0  0  0  0  0
    7.9374   -3.6110    0.0000 C   0  0  0  0  0  0  0  0  0  0  0  0
    8.6518   -3.1985    0.0000 C   0  0  0  0  0  0  0  0  0  0  0  0
    9.3663   -3.6110    0.0000 C   0  0  0  0  0  0  0  0  0  0  0  0
    9.3663   -4.4360    0.0000 C   0  0  0  0  0  0  0  0  0  0  0  0
    8.6518   -4.8485    0.0000 C   0  0  0  0  0  0  0  0  0  0  0  0
   10.0808   -3.1985    0.0000 O   0  0  0  0  0  0  0  0  0  0  0  0
    8.6804   -7.9560    0.0000 C   0  0  0  0  0  0  0  0  0  0  0  0
    8.6804   -8.7810    0.0000 C   0  0  0  0  0  0  0  0  0  0  0  0
    7.9659   -9.1935    0.0000 C   0  0  0  0  0  0  0  0  0  0  0  0
    7.2514   -8.7810    0.0000 C   0  0  0  0  0  0  0  0  0  0  0  0
    6.5370   -9.1935    0.0000 C   0  0  0  0  0  0  0  0  0  0  0  0
    5.8225   -8.7810    0.0000 C   0  0  0  0  0  0  0  0  0  0  0  0
    5.8225   -7.9560    0.0000 C   0  0  0  0  0  0  0  0  0  0  0  0
    6.5370   -7.5435    0.0000 C   0  0  0  0  0  0  0  0  0  0  0  0
    7.2514   -7.9560    0.0000 C   0  0  0  0  0  0  0  0  0  0  0  0
    7.9659   -7.5435    0.0000 O   0  3  0  0  0  0  0  0  0  0  0  0
    9.3949   -9.1935    0.0000 O   0  0  0  0  0  0  0  0  0  0  0  0
    6.5370  -10.0185    0.0000 O   0  0  0  0  0  0  0  0  0  0  0  0
    5.1080   -7.5435    0.0000 O   0  0  0  0  0  0  0  0  0  0  0  0
   10.1093   -5.4810    0.0000 O   0  0  0  0  0  0  0  0  0  0  0  0
   11.5383   -6.3060    0.0000 O   0  0  0  0  0  0  0  0  0  0  0  0
   10.1093   -7.9560    0.0000 C   0  0  0  0  0  0  0  0  0  0  0  0
   10.8238   -7.5435    0.0000 C   0  0  0  0  0  0  0  0  0  0  0  0
   10.8238   -6.7185    0.0000 C   0  0  0  0  0  0  0  0  0  0  0  0
   10.1093   -6.3060    0.0000 C   0  0  0  0  0  0  0  0  0  0  0  0
    9.3949   -6.7185    0.0000 C   0  0  0  0  0  0  0  0  0  0  0  0
    9.3949   -7.5435    0.0000 C   0  0  0  0  0  0  0  0  0  0  0  0
    8.6752  -11.2633    0.0000 C   0  0  0  0  0  0  0  0  0  0  0  0
    9.3895  -11.6763    0.0000 C   0  0  0  0  0  0  0  0  0  0  0  0
   10.1042  -11.2642    0.0000 C   0  0  0  0  0  0  0  0  0  0  0  0
   10.1047  -10.4392    0.0000 C   0  0  0  0  0  0  0  0  0  0  0  0
    9.3904  -10.0263    0.0000 C   0  0  0  0  0  0  0  0  0  0  0  0
    8.6757  -10.4383    0.0000 O   0  0  0  0  0  0  0  0  0  0  0  0
    7.9605  -11.6754    0.0000 C   0  0  0  0  0  0  0  0  0  0  0  0
    9.3890  -12.5013    0.0000 O   0  0  0  0  0  0  0  0  0  0  0  0
   10.8184  -11.6771    0.0000 O   0  0  0  0  0  0  0  0  0  0  0  0
   10.8194  -10.0271    0.0000 O   0  0  0  0  0  0  0  0  0  0  0  0
    7.9600  -12.5004    0.0000 O   0  0  0  0  0  0  0  0  0  0  0  0
    4.3909  -10.4310    0.0000 C   0  0  0  0  0  0  0  0  0  0  0  0
    4.3909  -11.2560    0.0000 C   0  0  0  0  0  0  0  0  0  0  0  0
    5.1054  -11.6685    0.0000 C   0  0  0  0  0  0  0  0  0  0  0  0
    5.8199  -11.2560    0.0000 C   0  0  0  0  0  0  0  0  0  0  0  0
    5.8199  -10.4310    0.0000 C   0  0  0  0  0  0  0  0  0  0  0  0
    5.1054  -10.0185    0.0000 O   0  0  0  0  0  0  0  0  0  0  0  0
    3.6764  -10.0185    0.0000 C   0  0  0  0  0  0  0  0  0  0  0  0
    3.6764  -11.6685    0.0000 O   0  0  0  0  0  0  0  0  0  0  0  0
    5.1054  -12.4935    0.0000 O   0  0  0  0  0  0  0  0  0  0  0  0
    6.5343  -11.6685    0.0000 O   0  0  0  0  0  0  0  0  0  0  0  0
    2.9620  -10.4310    0.0000 O   0  0  0  0  0  0  0  0  0  0  0  0
    8.6518   -2.3735    0.0000 O   0  0  0  0  0  0  0  0  0  0  0  0
   10.0808   -4.8485    0.0000 O   0  0  0  0  0  0  0  0  0  0  0  0
  1  2  1  0  0  0  0
  2  3  1  0  0  0  0
  3  4  1  0  0  0  0
  4  5  1  0  0  0  0
  5  6  2  0  0  0  0
  6  7  1  0  0  0  0
  7  8  2  0  0  0  0
  8  9  1  0  0  0  0
  4  9  2  0  0  0  0
  9 10  1  0  0  0  0
  1 10  1  0  0  0  0
  2 11  1  0  0  0  0
  5 12  1  0  0  0  0
  7 13  1  0  0  0  0
 14 15  1  0  0  0  0
 15 16  2  0  0  0  0
 16 17  1  0  0  0  0
 17 18  2  0  0  0  0
 18 19  1  0  0  0  0
 14 19  2  0  0  0  0
 17 20  1  0  0  0  0
  1 14  1  0  0  0  0
 39 34  1  0  0  0  0
 38 35  1  0  0  0  0
 41 36  2  0  0  0  0
 37 36  1  0  0  0  0
 38 37  2  0  0  0  0
 39 38  1  0  0  0  0
 40 39  2  0  0  0  0
 41 40  1  0  0  0  0
 21 22  1  0  0  0  0
 22 23  2  0  0  0  0
 23 24  1  0  0  0  0
 24 25  1  0  0  0  0
 25 26  2  0  0  0  0
 26 27  1  0  0  0  0
 27 28  2  0  0  0  0
 28 29  1  0  0  0  0
 24 29  2  0  0  0  0
 29 30  1  0  0  0  0
 21 30  2  0  0  0  0
 22 31  1  0  0  0  0
 25 32  1  0  0  0  0
 27 33  1  0  0  0  0
 21 41  1  0  0  0  0
  3 28  1  0  0  0  0
 42 43  1  0  0  0  0
 43 44  1  0  0  0  0
 44 45  1  0  0  0  0
 45 46  1  0  0  0  0
 46 47  1  0  0  0  0
 47 42  1  0  0  0  0
 42 48  1  0  0  0  0
 43 49  1  0  0  0  0
 44 50  1  0  0  0  0
 45 51  1  0  0  0  0
 48 52  1  0  0  0  0
 53 54  1  0  0  0  0
 54 55  1  0  0  0  0
 55 56  1  0  0  0  0
 56 57  1  0  0  0  0
 57 58  1  0  0  0  0
 58 53  1  0  0  0  0
 53 59  1  0  0  0  0
 54 60  1  0  0  0  0
 55 61  1  0  0  0  0
 56 62  1  0  0  0  0
 59 63  1  0  0  0  0
 57 32  1  0  0  0  0
 46 31  1  0  0  0  0
 16 64  1  0  0  0  0
 18 65  1  0  0  0  0
M  CHG  1  30   1
M  END
>  <cdx:fragmentId>
68

$$$$
