9967.cdx
  Mrv1902 05222410192D          

 44 43  0  0  0  0            999 V2000
    5.8012   -8.4666    0.0000 C   0  0  0  0  0  0  0  0  0  0  0  0
    6.5204   -8.0629    0.0000 C   0  0  0  0  0  0  0  0  0  0  0  0
    7.2296   -8.4839    0.0000 C   0  0  0  0  0  0  0  0  0  0  0  0
    7.9488   -8.0803    0.0000 C   0  0  0  0  0  0  0  0  0  0  0  0
    8.6580   -8.5013    0.0000 C   0  0  0  0  0  0  0  0  0  0  0  0
    9.3772   -8.0976    0.0000 C   0  0  0  0  0  0  0  0  0  0  0  0
   10.0864   -8.5186    0.0000 C   0  0  0  0  0  0  0  0  0  0  0  0
   10.8056   -8.1149    0.0000 C   0  0  0  0  0  0  0  0  0  0  0  0
   11.5148   -8.5359    0.0000 C   0  0  0  0  0  0  0  0  0  0  0  0
   12.2340   -8.1322    0.0000 C   0  0  0  0  0  0  0  0  0  0  0  0
   12.9432   -8.5532    0.0000 O   0  0  0  0  0  0  0  0  0  0  0  0
   13.6624   -8.1495    0.0000 C   0  0  0  0  0  0  0  0  0  0  0  0
   14.3716   -8.5705    0.0000 C   0  0  0  0  0  0  0  0  0  0  0  0
   15.0908   -8.1668    0.0000 C   0  0  0  0  0  0  0  0  0  0  0  0
   15.7999   -8.5878    0.0000 O   0  0  0  0  0  0  0  0  0  0  0  0
   16.5191   -8.1841    0.0000 C   0  0  0  0  0  0  0  0  0  0  0  0
   17.2283   -8.6051    0.0000 C   0  0  0  0  0  0  0  0  0  0  0  0
   17.9475   -8.2015    0.0000 C   0  0  0  0  0  0  0  0  0  0  0  0
   18.6567   -8.6225    0.0000 C   0  0  0  0  0  0  0  0  0  0  0  0
   19.3759   -8.2188    0.0000 C   0  0  0  0  0  0  0  0  0  0  0  0
   20.0851   -8.6398    0.0000 C   0  0  0  0  0  0  0  0  0  0  0  0
   20.8043   -8.2361    0.0000 C   0  0  0  0  0  0  0  0  0  0  0  0
   21.5135   -8.6571    0.0000 C   0  0  0  0  0  0  0  0  0  0  0  0
   22.2327   -8.2534    0.0000 C   0  0  0  0  0  0  0  0  0  0  0  0
   22.9419   -8.6744    0.0000 C   0  0  0  0  0  0  0  0  0  0  0  0
    5.8045   -9.2914    0.0000 C   0  0  0  0  0  0  0  0  0  0  0  0
    5.0918   -9.7065    0.0000 C   0  0  0  0  0  0  0  0  0  0  0  0
    5.0951  -10.5313    0.0000 C   0  0  0  0  0  0  0  0  0  0  0  0
    5.8109  -10.9408    0.0000 C   0  0  0  0  0  0  0  0  0  0  0  0
    5.8142  -11.7656    0.0000 C   0  0  0  0  0  0  0  0  0  0  0  0
    6.5300  -12.1751    0.0000 C   0  0  0  0  0  0  0  0  0  0  0  0
    7.2426  -11.7600    0.0000 C   0  0  0  0  0  0  0  0  0  0  0  0
    7.9373  -12.2046    0.0000 C   0  0  0  0  0  0  0  0  0  0  0  0
   22.9451   -9.4991    0.0000 C   0  0  0  0  0  0  0  0  0  0  0  0
   23.6610   -9.9087    0.0000 C   0  0  0  0  0  0  0  0  0  0  0  0
   23.6642  -10.7334    0.0000 C   0  0  0  0  0  0  0  0  0  0  0  0
   22.9516  -11.1486    0.0000 C   0  0  0  0  0  0  0  0  0  0  0  0
   22.9548  -11.9733    0.0000 C   0  0  0  0  0  0  0  0  0  0  0  0
   22.2422  -12.3885    0.0000 C   0  0  0  0  0  0  0  0  0  0  0  0
   21.5263  -11.9789    0.0000 C   0  0  0  0  0  0  0  0  0  0  0  0
   20.8137  -12.3941    0.0000 C   0  0  0  0  0  0  0  0  0  0  0  0
   14.3748   -9.3952    0.0000 O   0  0  0  0  0  0  0  0  0  0  0  0
   16.5159   -7.3594    0.0000 O   0  0  0  0  0  0  0  0  0  0  0  0
   12.2307   -7.3075    0.0000 O   0  0  0  0  0  0  0  0  0  0  0  0
  1  2  2  0  0  0  0
  2  3  1  0  0  0  0
  3  4  1  0  0  0  0
  4  5  1  0  0  0  0
  5  6  1  0  0  0  0
  6  7  1  0  0  0  0
  7  8  1  0  0  0  0
  8  9  1  0  0  0  0
  9 10  1  0  0  0  0
 10 11  1  0  0  0  0
 11 12  1  0  0  0  0
 12 13  1  0  0  0  0
 13 14  1  0  0  0  0
 14 15  1  0  0  0  0
 15 16  1  0  0  0  0
 16 17  1  0  0  0  0
 17 18  1  0  0  0  0
 18 19  1  0  0  0  0
 19 20  1  0  0  0  0
 20 21  1  0  0  0  0
 21 22  1  0  0  0  0
 22 23  1  0  0  0  0
 23 24  1  0  0  0  0
 24 25  2  0  0  0  0
  1 26  1  0  0  0  0
 26 27  1  0  0  0  0
 27 28  2  0  0  0  0
 28 29  1  0  0  0  0
 29 30  1  0  0  0  0
 30 31  2  0  0  0  0
 31 32  1  0  0  0  0
 32 33  1  0  0  0  0
 25 34  1  0  0  0  0
 34 35  1  0  0  0  0
 35 36  2  0  0  0  0
 36 37  1  0  0  0  0
 37 38  1  0  0  0  0
 38 39  2  0  0  0  0
 39 40  1  0  0  0  0
 40 41  1  0  0  0  0
 13 42  1  0  0  0  0
 16 43  2  0  0  0  0
 10 44  2  0  0  0  0
M  END
>  <cdx:fragmentId>
3

$$$$
