99683.cdx
  Mrv1902 05222410232D          

 72 79  0  0  0  0            999 V2000
   13.6676  -10.3785    0.0000 C   0  0  1  0  0  0  0  0  0  0  0  0
   14.3820   -9.9660    0.0000 C   0  0  2  0  0  0  0  0  0  0  0  0
   15.1667  -10.2209    0.0000 C   0  0  0  0  0  0  0  0  0  0  0  0
   15.6516   -9.5535    0.0000 C   0  0  2  0  0  0  0  0  0  0  0  0
   16.4362   -9.2986    0.0000 O   0  0  0  0  0  0  0  0  0  0  0  0
   16.4362   -8.4736    0.0000 C   0  0  1  0  0  0  0  0  0  0  0  0
   15.6516   -8.2186    0.0000 C   0  0  2  0  0  0  0  0  0  0  0  0
   15.1667   -8.8861    0.0000 C   0  0  2  0  0  0  0  0  0  0  0  0
   14.3820   -9.1410    0.0000 C   0  0  1  0  0  0  0  0  0  0  0  0
   13.6676   -8.7285    0.0000 C   0  0  0  0  0  0  0  0  0  0  0  0
   12.9531   -9.1410    0.0000 C   0  0  0  0  0  0  0  0  0  0  0  0
   12.9531   -9.9660    0.0000 C   0  0  2  0  0  0  0  0  0  0  0  0
   12.2386  -10.3785    0.0000 C   0  0  1  0  0  0  0  0  0  0  0  0
   11.5242   -9.9660    0.0000 C   0  0  0  0  0  0  0  0  0  0  0  0
   10.8097  -10.3785    0.0000 C   0  0  2  0  0  0  0  0  0  0  0  0
   10.8097  -11.2035    0.0000 C   0  0  1  0  0  0  0  0  0  0  0  0
   11.5242  -11.6160    0.0000 C   0  0  0  0  0  0  0  0  0  0  0  0
   12.2386  -11.2035    0.0000 C   0  0  2  0  0  0  0  0  0  0  0  0
   12.9531  -11.6160    0.0000 C   0  0  0  0  0  0  0  0  0  0  0  0
   13.6676  -11.2035    0.0000 C   0  0  0  0  0  0  0  0  0  0  0  0
   17.2567   -8.3873    0.0000 C   0  0  0  0  0  0  0  0  0  0  0  0
   17.7416   -9.0548    0.0000 C   0  0  0  0  0  0  0  0  0  0  0  0
   18.5621   -8.9685    0.0000 C   0  0  1  0  0  0  0  0  0  0  0  0
   19.0470   -9.6360    0.0000 C   0  0  0  0  0  0  0  0  0  0  0  0
   18.8977   -8.2149    0.0000 C   0  0  0  0  0  0  0  0  0  0  0  0
   12.2386   -9.5535    0.0000 C   0  0  0  0  0  0  0  0  0  0  0  0
   15.3966   -7.4340    0.0000 C   0  0  0  0  0  0  0  0  0  0  0  0
   14.7542   -8.1716    0.0000 H   0  0  0  0  0  0  0  0  0  0  0  0
   16.7718   -7.7199    0.0000 O   0  0  0  0  0  0  0  0  0  0  0  0
   13.6676   -9.5535    0.0000 H   0  0  0  0  0  0  0  0  0  0  0  0
   14.3820  -10.7910    0.0000 H   0  0  0  0  0  0  0  0  0  0  0  0
   16.1365  -10.2209    0.0000 H   0  0  0  0  0  0  0  0  0  0  0  0
   12.9531  -10.7910    0.0000 H   0  0  0  0  0  0  0  0  0  0  0  0
    7.2551   -9.9357    0.0000 O   0  0  0  0  0  0  0  0  0  0  0  0
   10.0952  -11.6160    0.0000 O   0  0  0  0  0  0  0  0  0  0  0  0
    7.2375  -11.5856    0.0000 O   0  0  0  0  0  0  0  0  0  0  0  0
    7.9782   -8.7134    0.0000 O   0  0  0  0  0  0  0  0  0  0  0  0
    8.6927   -9.1259    0.0000 C   0  0  0  0  0  0  0  0  0  0  0  0
    8.6839   -9.9509    0.0000 C   0  0  2  0  0  0  0  0  0  0  0  0
    7.9651  -10.3558    0.0000 C   0  0  1  0  0  0  0  0  0  0  0  0
    7.9563  -11.1807    0.0000 C   0  0  1  0  0  0  0  0  0  0  0  0
   21.5175   -9.5459    0.0000 O   0  0  0  0  0  0  0  0  0  0  0  0
   22.3459  -10.9728    0.0000 O   0  0  0  0  0  0  0  0  0  0  0  0
   21.5242  -12.4037    0.0000 O   0  0  0  0  0  0  0  0  0  0  0  0
   20.2884  -13.1211    0.0000 O   0  0  0  0  0  0  0  0  0  0  0  0
   19.8742  -12.4076    0.0000 C   0  0  0  0  0  0  0  0  0  0  0  0
   20.2850  -11.6922    0.0000 C   0  0  2  0  0  0  0  0  0  0  0  0
   21.1100  -11.6902    0.0000 C   0  0  2  0  0  0  0  0  0  0  0  0
   21.5209  -10.9748    0.0000 C   0  0  1  0  0  0  0  0  0  0  0  0
   21.1067  -10.2613    0.0000 C   0  0  2  0  0  0  0  0  0  0  0  0
   20.2817  -10.2632    0.0000 C   0  0  1  0  0  0  0  0  0  0  0  0
   19.8709  -10.9787    0.0000 O   0  0  0  0  0  0  0  0  0  0  0  0
   19.8675   -9.5497    0.0000 O   0  0  0  0  0  0  0  0  0  0  0  0
    8.6664  -11.6008    0.0000 C   0  0  2  0  0  0  0  0  0  0  0  0
    9.3852  -11.1959    0.0000 C   0  0  1  0  0  0  0  0  0  0  0  0
    9.3940  -10.3710    0.0000 O   0  0  0  0  0  0  0  0  0  0  0  0
    8.6576  -12.4258    0.0000 O   0  0  0  0  0  0  0  0  0  0  0  0
    6.4309   -9.9740    0.0000 C   0  0  2  0  0  0  0  0  0  0  0  0
    5.9931   -9.2747    0.0000 O   0  0  0  0  0  0  0  0  0  0  0  0
    5.1687   -9.3042    0.0000 C   0  0  1  0  0  0  0  0  0  0  0  0
    4.7977  -10.0409    0.0000 C   0  0  2  0  0  0  0  0  0  0  0  0
    5.2512  -10.7481    0.0000 C   0  0  1  0  0  0  0  0  0  0  0  0
    6.0600  -10.7106    0.0000 C   0  0  1  0  0  0  0  0  0  0  0  0
    3.9738  -10.0837    0.0000 O   0  0  0  0  0  0  0  0  0  0  0  0
    4.8723  -11.4809    0.0000 O   0  0  0  0  0  0  0  0  0  0  0  0
    6.5088  -11.4029    0.0000 O   0  0  0  0  0  0  0  0  0  0  0  0
    4.7235   -8.6097    0.0000 C   0  0  0  0  0  0  0  0  0  0  0  0
   14.3820   -8.3160    0.0000 C   0  0  0  0  0  0  0  0  0  0  0  0
   12.2386  -12.0285    0.0000 H   0  0  0  0  0  0  0  0  0  0  0  0
   13.6676   -7.9035    0.0000 O   0  0  0  0  0  0  0  0  0  0  0  0
   10.0952   -9.9660    0.0000 O   0  0  0  0  0  0  0  0  0  0  0  0
    3.8993   -8.6480    0.0000 O   0  0  0  0  0  0  0  0  0  0  0  0
 54 57  1  6  0  0  0
 40 34  1  1  0  0  0
 55 35  1  1  0  0  0
 41 36  1  1  0  0  0
 39 38  1  1  0  0  0
 38 37  1  0  0  0  0
 56 39  1  0  0  0  0
 40 39  1  0  0  0  0
 41 40  1  0  0  0  0
 54 41  1  0  0  0  0
 51 53  1  1  0  0  0
 50 42  1  6  0  0  0
 49 43  1  1  0  0  0
 48 44  1  6  0  0  0
 47 46  1  1  0  0  0
 46 45  1  0  0  0  0
 52 47  1  0  0  0  0
 48 47  1  0  0  0  0
 49 48  1  0  0  0  0
 50 49  1  0  0  0  0
 51 50  1  0  0  0  0
 52 51  1  0  0  0  0
 55 54  1  0  0  0  0
 56 55  1  0  0  0  0
  1  2  1  0  0  0  0
  2  3  1  0  0  0  0
  3  4  1  0  0  0  0
  4  5  1  0  0  0  0
  5  6  1  0  0  0  0
  6  7  1  0  0  0  0
  7  8  1  0  0  0  0
  8  9  1  0  0  0  0
  9 10  1  0  0  0  0
 10 11  1  0  0  0  0
 11 12  1  0  0  0  0
 12 13  1  0  0  0  0
 13 14  1  0  0  0  0
 14 15  1  0  0  0  0
 15 16  1  0  0  0  0
 16 17  1  0  0  0  0
 17 18  1  0  0  0  0
 18 19  1  0  0  0  0
 19 20  1  0  0  0  0
  1 20  1  0  0  0  0
  1 12  1  0  0  0  0
 13 18  1  0  0  0  0
  2  9  1  0  0  0  0
  4  8  1  0  0  0  0
 21 22  1  0  0  0  0
 22 23  1  0  0  0  0
 23 24  1  0  0  0  0
 24 53  1  0  0  0  0
 23 25  1  6  0  0  0
  6 21  1  0  0  0  0
 13 26  1  1  0  0  0
  7 27  1  6  0  0  0
  8 28  1  6  0  0  0
  6 29  1  6  0  0  0
 16 35  1  1  0  0  0
  1 30  1  1  0  0  0
  2 31  1  6  0  0  0
  4 32  1  6  0  0  0
 12 33  1  6  0  0  0
 58 34  1  1  0  0  0
 58 59  1  0  0  0  0
 59 60  1  0  0  0  0
 60 61  1  0  0  0  0
 61 62  1  0  0  0  0
 62 63  1  0  0  0  0
 63 58  1  0  0  0  0
 61 64  1  6  0  0  0
 62 65  1  1  0  0  0
 63 66  1  6  0  0  0
 60 67  1  1  0  0  0
  9 68  1  1  0  0  0
 18 69  1  6  0  0  0
 10 70  2  0  0  0  0
 15 71  1  6  0  0  0
 67 72  1  0  0  0  0
M  END
>  <cdx:groupId>
195535

>  <cdx:fragmentId>
195341

$$$$
