99687.cdx
  Mrv1902 05222410252D          

 37 40  0  0  0  0            999 V2000
    2.9887   -8.1813    0.0000 O   0  0  0  0  0  0  0  0  0  0  0  0
    3.7031   -8.5938    0.0000 C   0  0  2  0  0  0  0  0  0  0  0  0
    4.4176   -8.1813    0.0000 C   0  0  1  0  0  0  0  0  0  0  0  0
    4.4176   -7.3563    0.0000 C   0  0  0  0  0  0  0  0  0  0  0  0
    3.7031   -6.9438    0.0000 O   0  0  0  0  0  0  0  0  0  0  0  0
    3.7031   -9.4187    0.0000 C   0  0  1  0  0  0  0  0  0  0  0  0
    4.4176   -9.8312    0.0000 C   0  0  2  0  0  0  0  0  0  0  0  0
    5.1321   -9.4187    0.0000 C   0  0  1  0  0  0  0  0  0  0  0  0
    5.1321   -8.5938    0.0000 O   0  0  0  0  0  0  0  0  0  0  0  0
    5.8466   -9.8312    0.0000 O   0  0  0  0  0  0  0  0  0  0  0  0
    6.5610   -9.4187    0.0000 C   0  0  1  0  0  0  0  0  0  0  0  0
    6.5610   -8.5938    0.0000 C   0  0  0  0  0  0  0  0  0  0  0  0
    5.8466   -8.1813    0.0000 O   0  0  0  0  0  0  0  0  0  0  0  0
    7.2755   -9.8312    0.0000 C   0  0  1  0  0  0  0  0  0  0  0  0
    7.9900   -9.4187    0.0000 C   0  0  2  0  0  0  0  0  0  0  0  0
    7.9900   -8.5938    0.0000 C   0  0  1  0  0  0  0  0  0  0  0  0
    7.2755   -8.1813    0.0000 C   0  0  0  0  0  0  0  0  0  0  0  0
    8.7044   -9.8312    0.0000 C   0  0  0  0  0  0  0  0  0  0  0  0
    9.4189   -9.4187    0.0000 C   0  0  0  0  0  0  0  0  0  0  0  0
    9.4189   -8.5938    0.0000 C   0  0  0  0  0  0  0  0  0  0  0  0
    8.7044   -8.1813    0.0000 C   0  0  1  0  0  0  0  0  0  0  0  0
   10.1334   -8.1813    0.0000 C   0  0  0  0  0  0  0  0  0  0  0  0
   10.1334   -7.3563    0.0000 C   0  0  2  0  0  0  0  0  0  0  0  0
    9.4189   -6.9438    0.0000 C   0  0  0  0  0  0  0  0  0  0  0  0
    8.7044   -7.3563    0.0000 C   0  0  0  0  0  0  0  0  0  0  0  0
   10.5459   -6.6418    0.0000 C   0  0  0  0  0  0  0  0  0  0  0  0
   10.1334   -5.9273    0.0000 C   0  0  0  0  0  0  0  0  0  0  0  0
   11.3709   -6.6418    0.0000 O   0  0  0  0  0  0  0  0  0  0  0  0
   10.5459   -5.2128    0.0000 O   0  0  0  0  0  0  0  0  0  0  0  0
    2.9887   -9.8312    0.0000 O   0  0  0  0  0  0  0  0  0  0  0  0
    7.6880  -10.5457    0.0000 C   0  0  0  0  0  0  0  0  0  0  0  0
    7.9900  -10.2437    0.0000 H   0  0  0  0  0  0  0  0  0  0  0  0
    8.7044   -9.0062    0.0000 H   0  0  0  0  0  0  0  0  0  0  0  0
   10.9584   -7.3563    0.0000 C   0  0  0  0  0  0  0  0  0  0  0  0
    4.4176  -10.6562    0.0000 O   0  0  0  0  0  0  0  0  0  0  0  0
    6.8630  -10.5457    0.0000 C   0  0  0  0  0  0  0  0  0  0  0  0
    7.9900   -7.7687    0.0000 C   0  0  0  0  0  0  0  0  0  0  0  0
  2  1  1  6  0  0  0
  2  3  1  0  0  0  0
  3  4  1  1  0  0  0
  4  5  1  0  0  0  0
  2  6  1  0  0  0  0
  6  7  1  0  0  0  0
  7  8  1  0  0  0  0
  8  9  1  0  0  0  0
  9  3  1  0  0  0  0
  8 10  1  1  0  0  0
 11 10  1  1  0  0  0
 11 12  1  0  0  0  0
 12 13  2  0  0  0  0
 11 14  1  0  0  0  0
 14 15  1  0  0  0  0
 15 16  1  0  0  0  0
 16 17  1  0  0  0  0
 17 12  1  0  0  0  0
 15 18  1  0  0  0  0
 18 19  1  0  0  0  0
 19 20  1  0  0  0  0
 20 21  1  0  0  0  0
 21 16  1  0  0  0  0
 20 22  2  0  0  0  0
 22 23  1  0  0  0  0
 23 24  1  0  0  0  0
 24 25  1  0  0  0  0
 25 21  1  0  0  0  0
 23 26  1  0  0  0  0
 26 27  1  0  0  0  0
 26 28  1  0  0  0  0
 27 29  1  0  0  0  0
  6 30  1  1  0  0  0
 14 31  1  1  0  0  0
 15 32  1  1  0  0  0
 21 33  1  1  0  0  0
 23 34  1  1  0  0  0
  7 35  1  6  0  0  0
 14 36  1  6  0  0  0
 16 37  1  6  0  0  0
M  END
>  <cdx:fragmentId>
5

$$$$
