99689.cdx
  Mrv1902 05222410212D          

 27 29  0  0  0  0            999 V2000
    5.0073   -8.9238    0.0000 C   0  0  0  0  0  0  0  0  0  0  0  0
    5.0073   -8.0987    0.0000 C   0  0  0  0  0  0  0  0  0  0  0  0
    4.2928   -7.6863    0.0000 O   0  0  0  0  0  0  0  0  0  0  0  0
    5.7218   -9.3362    0.0000 C   0  0  2  0  0  0  0  0  0  0  0  0
    6.4362   -8.9238    0.0000 C   0  0  2  0  0  0  0  0  0  0  0  0
    6.4362   -8.0987    0.0000 C   0  0  1  0  0  0  0  0  0  0  0  0
    5.7218   -7.6863    0.0000 C   0  0  0  0  0  0  0  0  0  0  0  0
    7.1507   -9.3362    0.0000 C   0  0  0  0  0  0  0  0  0  0  0  0
    7.8652   -8.9238    0.0000 C   0  0  0  0  0  0  0  0  0  0  0  0
    7.8652   -8.0987    0.0000 C   0  0  0  0  0  0  0  0  0  0  0  0
    7.1507   -7.6863    0.0000 C   0  0  1  0  0  0  0  0  0  0  0  0
    8.5796   -7.6863    0.0000 C   0  0  0  0  0  0  0  0  0  0  0  0
    8.5796   -6.8613    0.0000 C   0  0  1  0  0  0  0  0  0  0  0  0
    7.8652   -6.4487    0.0000 C   0  0  0  0  0  0  0  0  0  0  0  0
    7.1507   -6.8613    0.0000 C   0  0  0  0  0  0  0  0  0  0  0  0
    8.9921   -6.1468    0.0000 C   0  0  0  0  0  0  0  0  0  0  0  0
    6.1343  -10.0507    0.0000 C   0  0  0  0  0  0  0  0  0  0  0  0
    6.4362   -9.7487    0.0000 H   0  0  0  0  0  0  0  0  0  0  0  0
    7.1507   -8.5113    0.0000 H   0  0  0  0  0  0  0  0  0  0  0  0
    9.4046   -6.8613    0.0000 C   0  0  1  0  0  0  0  0  0  0  0  0
    5.3093  -10.0507    0.0000 C   0  0  0  0  0  0  0  0  0  0  0  0
    6.4362   -7.2738    0.0000 C   0  0  0  0  0  0  0  0  0  0  0  0
    9.8171   -6.1468    0.0000 O   0  0  0  0  0  0  0  0  0  0  0  0
    9.8171   -7.5757    0.0000 C   0  0  0  0  0  0  0  0  0  0  0  0
   10.6421   -7.5757    0.0000 O   0  0  0  0  0  0  0  0  0  0  0  0
    5.7218  -10.7652    0.0000 O   0  0  0  0  0  0  0  0  0  0  0  0
    6.9593  -10.0507    0.0000 O   0  0  0  0  0  0  0  0  0  0  0  0
  1  2  1  0  0  0  0
  2  3  1  0  0  0  0
  1  4  1  0  0  0  0
  4  5  1  0  0  0  0
  5  6  1  0  0  0  0
  6  7  1  0  0  0  0
  7  2  1  0  0  0  0
  5  8  1  0  0  0  0
  8  9  1  0  0  0  0
  9 10  1  0  0  0  0
 10 11  1  0  0  0  0
 11  6  1  0  0  0  0
 10 12  2  0  0  0  0
 12 13  1  0  0  0  0
 13 14  1  0  0  0  0
 14 15  1  0  0  0  0
 15 11  1  0  0  0  0
 13 16  1  1  0  0  0
  4 17  1  6  0  0  0
  5 18  1  1  0  0  0
 11 19  1  1  0  0  0
 13 20  1  0  0  0  0
  4 21  1  1  0  0  0
  6 22  1  6  0  0  0
 20 23  1  1  0  0  0
 20 24  1  0  0  0  0
 24 25  1  0  0  0  0
 17 26  2  0  0  0  0
 17 27  1  0  0  0  0
M  END
>  <cdx:fragmentId>
5

$$$$
