99684.cdx
  Mrv1902 05222410252D          

 80 88  0  0  0  0            999 V2000
   20.2339   -8.2417    0.0000 C   0  0  0  0  0  0  0  0  0  0  0  0
   19.7490   -7.5743    0.0000 C   0  0  3  0  0  0  0  0  0  0  0  0
   18.9285   -7.6605    0.0000 C   0  0  0  0  0  0  0  0  0  0  0  0
   18.4436   -6.9931    0.0000 C   0  0  0  0  0  0  0  0  0  0  0  0
   20.0846   -6.8206    0.0000 C   0  0  0  0  0  0  0  0  0  0  0  0
   14.8545   -8.9842    0.0000 C   0  0  1  0  0  0  0  0  0  0  0  0
   15.5690   -8.5717    0.0000 C   0  0  2  0  0  0  0  0  0  0  0  0
   16.3536   -8.8267    0.0000 C   0  0  0  0  0  0  0  0  0  0  0  0
   16.8385   -8.1592    0.0000 C   0  0  2  0  0  0  0  0  0  0  0  0
   17.6231   -7.9043    0.0000 O   0  0  0  0  0  0  0  0  0  0  0  0
   17.6231   -7.0793    0.0000 C   0  0  1  0  0  0  0  0  0  0  0  0
   16.8385   -6.8244    0.0000 C   0  0  2  0  0  0  0  0  0  0  0  0
   16.3536   -7.4918    0.0000 C   0  0  2  0  0  0  0  0  0  0  0  0
   15.5690   -7.7467    0.0000 C   0  0  1  0  0  0  0  0  0  0  0  0
   14.8545   -7.3342    0.0000 C   0  0  0  0  0  0  0  0  0  0  0  0
   14.1400   -7.7467    0.0000 C   0  0  0  0  0  0  0  0  0  0  0  0
   14.1400   -8.5717    0.0000 C   0  0  2  0  0  0  0  0  0  0  0  0
   13.4255   -8.9842    0.0000 C   0  0  1  0  0  0  0  0  0  0  0  0
   12.7111   -8.5717    0.0000 C   0  0  0  0  0  0  0  0  0  0  0  0
   11.9966   -8.9842    0.0000 C   0  0  0  0  0  0  0  0  0  0  0  0
   11.9966   -9.8092    0.0000 C   0  0  1  0  0  0  0  0  0  0  0  0
   12.7111  -10.2217    0.0000 C   0  0  0  0  0  0  0  0  0  0  0  0
   13.4255   -9.8092    0.0000 C   0  0  0  0  0  0  0  0  0  0  0  0
   14.1400  -10.2217    0.0000 C   0  0  0  0  0  0  0  0  0  0  0  0
   14.8545   -9.8092    0.0000 C   0  0  0  0  0  0  0  0  0  0  0  0
   13.4255   -8.1592    0.0000 C   0  0  0  0  0  0  0  0  0  0  0  0
   15.5690   -6.9217    0.0000 C   0  0  0  0  0  0  0  0  0  0  0  0
   16.5836   -6.0397    0.0000 C   0  0  0  0  0  0  0  0  0  0  0  0
   17.9587   -6.3256    0.0000 O   0  0  0  0  0  0  0  0  0  0  0  0
   11.2821  -10.2217    0.0000 O   0  0  0  0  0  0  0  0  0  0  0  0
   10.5677   -8.9842    0.0000 O   0  0  0  0  0  0  0  0  0  0  0  0
   10.5677   -9.8092    0.0000 C   0  0  2  0  0  0  0  0  0  0  0  0
    9.8532  -10.2217    0.0000 C   0  0  1  0  0  0  0  0  0  0  0  0
    9.1387   -9.8092    0.0000 C   0  0  2  0  0  0  0  0  0  0  0  0
    9.1387   -8.9842    0.0000 C   0  0  2  0  0  0  0  0  0  0  0  0
    9.8532   -8.5717    0.0000 C   0  0  1  0  0  0  0  0  0  0  0  0
    9.8532   -7.7467    0.0000 C   0  0  0  0  0  0  0  0  0  0  0  0
    9.1387   -7.3342    0.0000 O   0  0  0  0  0  0  0  0  0  0  0  0
    8.4242  -10.2217    0.0000 O   0  0  0  0  0  0  0  0  0  0  0  0
    9.8532  -11.0467    0.0000 O   0  0  0  0  0  0  0  0  0  0  0  0
   14.8545   -8.1592    0.0000 H   0  0  0  0  0  0  0  0  0  0  0  0
   15.5690   -9.3967    0.0000 H   0  0  0  0  0  0  0  0  0  0  0  0
   17.3234   -8.8267    0.0000 H   0  0  0  0  0  0  0  0  0  0  0  0
   15.9919   -6.7503    0.0000 H   0  0  0  0  0  0  0  0  0  0  0  0
   14.1400   -9.3967    0.0000 H   0  0  0  0  0  0  0  0  0  0  0  0
   21.0544   -8.1555    0.0000 O   0  0  0  0  0  0  0  0  0  0  0  0
   21.5951  -11.7107    0.0000 O   0  0  0  0  0  0  0  0  0  0  0  0
   21.1572  -11.0115    0.0000 C   0  0  0  0  0  0  0  0  0  0  0  0
   22.8061  -10.9522    0.0000 O   0  0  0  0  0  0  0  0  0  0  0  0
   23.5792   -9.4945    0.0000 O   0  0  0  0  0  0  0  0  0  0  0  0
   22.7033   -8.0962    0.0000 O   0  0  0  0  0  0  0  0  0  0  0  0
   21.5437  -10.2827    0.0000 C   0  0  2  0  0  0  0  0  0  0  0  0
   22.3682  -10.2530    0.0000 C   0  0  2  0  0  0  0  0  0  0  0  0
   22.7547   -9.5242    0.0000 C   0  0  1  0  0  0  0  0  0  0  0  0
   22.3168   -8.8250    0.0000 C   0  0  2  0  0  0  0  0  0  0  0  0
   21.4923   -8.8547    0.0000 C   0  0  1  0  0  0  0  0  0  0  0  0
   21.1058   -9.5835    0.0000 O   0  0  0  0  0  0  0  0  0  0  0  0
    8.4242   -8.5717    0.0000 O   0  0  0  0  0  0  0  0  0  0  0  0
    8.0115   -7.8574    0.0000 C   0  0  2  0  0  0  0  0  0  0  0  0
    8.4238   -7.1428    0.0000 O   0  0  0  0  0  0  0  0  0  0  0  0
    8.0111   -6.4285    0.0000 C   0  0  1  0  0  0  0  0  0  0  0  0
    7.1861   -6.4287    0.0000 C   0  0  2  0  0  0  0  0  0  0  0  0
    6.7738   -7.1433    0.0000 C   0  0  1  0  0  0  0  0  0  0  0  0
    7.1865   -7.8577    0.0000 C   0  0  1  0  0  0  0  0  0  0  0  0
    8.4234   -5.7139    0.0000 C   0  0  0  0  0  0  0  0  0  0  0  0
    5.9488   -7.1436    0.0000 O   0  0  0  0  0  0  0  0  0  0  0  0
    6.7742   -8.5723    0.0000 O   0  0  0  0  0  0  0  0  0  0  0  0
    6.7734   -5.7144    0.0000 O   0  0  0  0  0  0  0  0  0  0  0  0
    8.0106   -4.9995    0.0000 O   0  0  0  0  0  0  0  0  0  0  0  0
    5.9492   -8.5725    0.0000 C   0  0  2  0  0  0  0  0  0  0  0  0
    5.5405   -7.8559    0.0000 O   0  0  0  0  0  0  0  0  0  0  0  0
    4.7076   -7.8654    0.0000 C   0  0  1  0  0  0  0  0  0  0  0  0
    4.2994   -8.5823    0.0000 C   0  0  1  0  0  0  0  0  0  0  0  0
    4.7161   -9.3035    0.0000 C   0  0  1  0  0  0  0  0  0  0  0  0
    5.5410   -9.2894    0.0000 C   0  0  1  0  0  0  0  0  0  0  0  0
    4.2889   -7.1546    0.0000 C   0  0  0  0  0  0  0  0  0  0  0  0
    4.3099  -10.0216    0.0000 O   0  0  0  0  0  0  0  0  0  0  0  0
    5.9617   -9.9990    0.0000 O   0  0  0  0  0  0  0  0  0  0  0  0
    3.4744   -8.5849    0.0000 O   0  0  0  0  0  0  0  0  0  0  0  0
    3.4640   -7.1617    0.0000 O   0  0  0  0  0  0  0  0  0  0  0  0
 56 46  1  1  0  0  0
 52 48  1  1  0  0  0
 48 47  1  0  0  0  0
 53 49  1  6  0  0  0
 54 50  1  1  0  0  0
 55 51  1  6  0  0  0
 57 52  1  0  0  0  0
 53 52  1  0  0  0  0
 54 53  1  0  0  0  0
 55 54  1  0  0  0  0
 56 55  1  0  0  0  0
 57 56  1  0  0  0  0
  1  2  1  0  0  0  0
  2  3  1  0  0  0  0
  3  4  1  0  0  0  0
 46  1  1  0  0  0  0
  2  5  1  4  0  0  0
  6  7  1  0  0  0  0
  7  8  1  0  0  0  0
  8  9  1  0  0  0  0
  9 10  1  0  0  0  0
 10 11  1  0  0  0  0
 11 12  1  0  0  0  0
 12 13  1  0  0  0  0
 13 14  1  0  0  0  0
 14 15  1  0  0  0  0
 15 16  1  0  0  0  0
 16 17  1  0  0  0  0
 17 18  1  0  0  0  0
 18 19  1  0  0  0  0
 19 20  1  0  0  0  0
 20 21  1  0  0  0  0
 21 22  1  0  0  0  0
 22 23  1  0  0  0  0
 23 24  2  0  0  0  0
 24 25  1  0  0  0  0
  6 25  1  0  0  0  0
  6 17  1  0  0  0  0
 18 23  1  0  0  0  0
  7 14  1  0  0  0  0
  9 13  1  0  0  0  0
 18 26  1  1  0  0  0
 14 27  1  1  0  0  0
 12 28  1  6  0  0  0
 11 29  1  6  0  0  0
 31 32  1  0  0  0  0
 32 33  1  0  0  0  0
 33 34  1  0  0  0  0
 34 35  1  0  0  0  0
 35 36  1  0  0  0  0
 31 36  1  0  0  0  0
 35 58  1  1  0  0  0
 37 38  1  0  0  0  0
 36 37  1  1  0  0  0
 34 39  1  1  0  0  0
 33 40  1  6  0  0  0
 32 30  1  1  0  0  0
 21 30  1  1  0  0  0
 11  4  1  0  0  0  0
  6 41  1  1  0  0  0
  7 42  1  6  0  0  0
  9 43  1  6  0  0  0
 13 44  1  6  0  0  0
 17 45  1  6  0  0  0
 59 58  1  1  0  0  0
 59 60  1  0  0  0  0
 60 61  1  0  0  0  0
 61 62  1  0  0  0  0
 62 63  1  0  0  0  0
 63 64  1  0  0  0  0
 64 59  1  0  0  0  0
 61 65  1  1  0  0  0
 63 66  1  1  0  0  0
 64 67  1  6  0  0  0
 62 68  1  6  0  0  0
 65 69  1  0  0  0  0
 70 67  1  1  0  0  0
 70 71  1  0  0  0  0
 71 72  1  0  0  0  0
 72 73  1  0  0  0  0
 73 74  1  0  0  0  0
 74 75  1  0  0  0  0
 75 70  1  0  0  0  0
 72 76  1  1  0  0  0
 74 77  1  1  0  0  0
 75 78  1  6  0  0  0
 73 79  1  1  0  0  0
 76 80  1  0  0  0  0
M  END
>  <cdx:fragmentId>
39

$$$$
