99680.cdx
  Mrv1902 05222410242D          

 42 46  0  0  0  0            999 V2000
   11.2126   -7.7830    0.0000 C   0  0  0  0  0  0  0  0  0  0  0  0
    6.5278   -9.8207    0.0000 C   0  0  0  0  0  0  0  0  0  0  0  0
    6.5278   -8.9957    0.0000 C   0  0  2  0  0  0  0  0  0  0  0  0
    7.2423   -8.5832    0.0000 C   0  0  0  0  0  0  0  0  0  0  0  0
    7.2423  -10.2332    0.0000 C   0  0  2  0  0  0  0  0  0  0  0  0
    7.6548  -10.9476    0.0000 C   0  0  0  0  0  0  0  0  0  0  0  0
    6.8298  -10.9476    0.0000 C   0  0  0  0  0  0  0  0  0  0  0  0
    7.9568   -9.8207    0.0000 C   0  0  2  0  0  0  0  0  0  0  0  0
    7.9568  -10.6457    0.0000 H   0  0  0  0  0  0  0  0  0  0  0  0
    8.6712  -10.2332    0.0000 C   0  0  0  0  0  0  0  0  0  0  0  0
    9.3857   -9.8207    0.0000 C   0  0  0  0  0  0  0  0  0  0  0  0
    9.3857   -8.9957    0.0000 C   0  0  2  0  0  0  0  0  0  0  0  0
    8.6712   -8.5832    0.0000 C   0  0  1  0  0  0  0  0  0  0  0  0
    8.6712   -9.4082    0.0000 H   0  0  0  0  0  0  0  0  0  0  0  0
    7.9568   -8.9957    0.0000 C   0  0  1  0  0  0  0  0  0  0  0  0
    7.9568   -8.1707    0.0000 C   0  0  0  0  0  0  0  0  0  0  0  0
   10.1537   -8.6943    0.0000 C   0  0  2  0  0  0  0  0  0  0  0  0
   10.3968   -7.9059    0.0000 C   0  0  0  0  0  0  0  0  0  0  0  0
    9.9321   -7.2243    0.0000 C   0  0  2  0  0  0  0  0  0  0  0  0
    9.2400   -8.0300    0.0000 C   0  0  0  0  0  0  0  0  0  0  0  0
    9.1094   -7.1626    0.0000 C   0  0  0  0  0  0  0  0  0  0  0  0
    8.5483   -7.7674    0.0000 C   0  0  0  0  0  0  0  0  0  0  0  0
    7.2423  -11.6621    0.0000 C   0  0  0  0  0  0  0  0  0  0  0  0
    6.4173  -11.6621    0.0000 O   0  0  0  0  0  0  0  0  0  0  0  0
    7.6548  -12.3766    0.0000 O   0  0  0  0  0  0  0  0  0  0  0  0
    6.0048  -10.9476    0.0000 C   0  0  0  0  0  0  0  0  0  0  0  0
    5.5923  -10.2332    0.0000 O   0  0  0  0  0  0  0  0  0  0  0  0
    5.5923  -11.6621    0.0000 O   0  0  0  0  0  0  0  0  0  0  0  0
   10.7584   -9.2554    0.0000 O   0  0  0  0  0  0  0  0  0  0  0  0
    5.8133   -8.5832    0.0000 O   0  0  0  0  0  0  0  0  0  0  0  0
    5.8133   -7.7582    0.0000 C   0  0  2  0  0  0  0  0  0  0  0  0
    6.5278   -7.3457    0.0000 O   0  0  0  0  0  0  0  0  0  0  0  0
    6.5278   -6.5207    0.0000 C   0  0  1  0  0  0  0  0  0  0  0  0
    5.8133   -6.1082    0.0000 C   0  0  2  0  0  0  0  0  0  0  0  0
    5.0989   -6.5207    0.0000 C   0  0  1  0  0  0  0  0  0  0  0  0
    5.0989   -7.3457    0.0000 C   0  0  1  0  0  0  0  0  0  0  0  0
    4.3844   -6.1082    0.0000 O   0  0  0  0  0  0  0  0  0  0  0  0
    7.2423   -6.1082    0.0000 C   0  0  0  0  0  0  0  0  0  0  0  0
    4.3844   -7.7582    0.0000 O   0  0  0  0  0  0  0  0  0  0  0  0
    5.8133   -5.2832    0.0000 O   0  0  0  0  0  0  0  0  0  0  0  0
    7.2423   -5.2832    0.0000 O   0  0  0  0  0  0  0  0  0  0  0  0
   10.3446   -6.5098    0.0000 H   0  0  0  0  0  0  0  0  0  0  0  0
  2  3  1  0  0  0  0
  3  4  1  0  0  0  0
  2  5  1  0  0  0  0
  5  6  1  6  0  0  0
  5  7  1  1  0  0  0
  5  8  1  0  0  0  0
  8  9  1  6  0  0  0
  8 10  1  0  0  0  0
 10 11  1  0  0  0  0
 12 11  1  1  0  0  0
 12 13  1  0  0  0  0
 13 14  1  6  0  0  0
 13 15  1  0  0  0  0
  4 15  1  0  0  0  0
  8 15  1  0  0  0  0
 15 16  1  1  0  0  0
 12 17  1  0  0  0  0
 17 18  1  0  0  0  0
  1 18  2  0  0  0  0
 18 19  1  0  0  0  0
 19 20  1  0  0  0  0
 12 20  1  0  0  0  0
 19 21  1  0  0  0  0
 21 22  1  0  0  0  0
 13 22  1  0  0  0  0
 23 24  2  0  0  0  0
 23 25  1  0  0  0  0
  6 23  1  0  0  0  0
 26 27  2  0  0  0  0
 26 28  1  0  0  0  0
  7 26  1  0  0  0  0
 17 29  1  6  0  0  0
  3 30  1  1  0  0  0
 31 30  1  1  0  0  0
 31 32  1  0  0  0  0
 32 33  1  0  0  0  0
 33 34  1  0  0  0  0
 34 35  1  0  0  0  0
 35 36  1  0  0  0  0
 36 31  1  0  0  0  0
 35 37  1  1  0  0  0
 33 38  1  1  0  0  0
 36 39  1  6  0  0  0
 34 40  1  6  0  0  0
 38 41  1  0  0  0  0
 19 42  1  1  0  0  0
M  END
>  <cdx:fragmentId>
7

$$$$
