99688.cdx
  Mrv1902 05222410212D          

 37 40  0  0  0  0            999 V2000
    4.8835   -6.8475    0.0000 C   0  0  0  0  0  0  0  0  0  0  0  0
    4.8835   -6.0225    0.0000 C   0  0  0  0  0  0  0  0  0  0  0  0
    4.1691   -5.6100    0.0000 O   0  0  0  0  0  0  0  0  0  0  0  0
    5.5980   -7.2600    0.0000 C   0  0  2  0  0  0  0  0  0  0  0  0
    6.3125   -6.8475    0.0000 C   0  0  2  0  0  0  0  0  0  0  0  0
    6.3125   -6.0225    0.0000 C   0  0  1  0  0  0  0  0  0  0  0  0
    5.5980   -5.6100    0.0000 C   0  0  0  0  0  0  0  0  0  0  0  0
    7.0269   -7.2600    0.0000 C   0  0  0  0  0  0  0  0  0  0  0  0
    7.7414   -6.8475    0.0000 C   0  0  0  0  0  0  0  0  0  0  0  0
    7.7414   -6.0225    0.0000 C   0  0  0  0  0  0  0  0  0  0  0  0
    7.0269   -5.6100    0.0000 C   0  0  1  0  0  0  0  0  0  0  0  0
    8.4559   -5.6100    0.0000 C   0  0  0  0  0  0  0  0  0  0  0  0
    8.4559   -4.7850    0.0000 C   0  0  1  0  0  0  0  0  0  0  0  0
    7.7414   -4.3725    0.0000 C   0  0  0  0  0  0  0  0  0  0  0  0
    7.0269   -4.7850    0.0000 C   0  0  0  0  0  0  0  0  0  0  0  0
    8.8684   -4.0705    0.0000 C   0  0  0  0  0  0  0  0  0  0  0  0
    6.0105   -7.9745    0.0000 C   0  0  0  0  0  0  0  0  0  0  0  0
    6.3125   -7.6725    0.0000 H   0  0  0  0  0  0  0  0  0  0  0  0
    7.0269   -6.4350    0.0000 H   0  0  0  0  0  0  0  0  0  0  0  0
    9.2809   -4.7850    0.0000 C   0  0  1  0  0  0  0  0  0  0  0  0
    5.1855   -7.9745    0.0000 C   0  0  0  0  0  0  0  0  0  0  0  0
    6.3125   -5.1975    0.0000 C   0  0  0  0  0  0  0  0  0  0  0  0
    9.6934   -4.0705    0.0000 O   0  0  0  0  0  0  0  0  0  0  0  0
    9.6934   -5.4995    0.0000 C   0  0  0  0  0  0  0  0  0  0  0  0
   10.5184   -5.4995    0.0000 O   0  0  0  0  0  0  0  0  0  0  0  0
    5.5980   -8.6889    0.0000 O   0  0  0  0  0  0  0  0  0  0  0  0
    4.8798  -10.7511    0.0000 C   0  0  2  0  0  0  0  0  0  0  0  0
    5.5948  -11.1626    0.0000 C   0  0  2  0  0  0  0  0  0  0  0  0
    6.3087  -10.7491    0.0000 C   0  0  1  0  0  0  0  0  0  0  0  0
    6.3075   -9.9241    0.0000 C   0  0  2  0  0  0  0  0  0  0  0  0
    5.5925   -9.5126    0.0000 C   0  0  1  0  0  0  0  0  0  0  0  0
    4.8786   -9.9261    0.0000 O   0  0  0  0  0  0  0  0  0  0  0  0
    4.1659  -11.1646    0.0000 C   0  0  0  0  0  0  0  0  0  0  0  0
    7.0238  -11.1606    0.0000 O   0  0  0  0  0  0  0  0  0  0  0  0
    5.5960  -11.9876    0.0000 O   0  0  0  0  0  0  0  0  0  0  0  0
    7.0214   -9.5106    0.0000 O   0  0  0  0  0  0  0  0  0  0  0  0
    4.1671  -11.9896    0.0000 O   0  0  0  0  0  0  0  0  0  0  0  0
  1  2  1  0  0  0  0
  2  3  1  0  0  0  0
  1  4  1  0  0  0  0
  4  5  1  0  0  0  0
  5  6  1  0  0  0  0
  6  7  1  0  0  0  0
  7  2  1  0  0  0  0
  5  8  1  0  0  0  0
  8  9  1  0  0  0  0
  9 10  1  0  0  0  0
 10 11  1  0  0  0  0
 11  6  1  0  0  0  0
 10 12  2  0  0  0  0
 12 13  1  0  0  0  0
 13 14  1  0  0  0  0
 14 15  1  0  0  0  0
 15 11  1  0  0  0  0
 13 16  1  1  0  0  0
  4 17  1  6  0  0  0
  5 18  1  1  0  0  0
 11 19  1  1  0  0  0
 13 20  1  0  0  0  0
  4 21  1  1  0  0  0
  6 22  1  6  0  0  0
 20 23  1  1  0  0  0
 20 24  1  0  0  0  0
 24 25  1  0  0  0  0
 17 26  1  0  0  0  0
 27 28  1  0  0  0  0
 28 29  1  0  0  0  0
 29 30  1  0  0  0  0
 30 31  1  0  0  0  0
 31 32  1  0  0  0  0
 32 27  1  0  0  0  0
 27 33  1  1  0  0  0
 29 34  1  1  0  0  0
 28 35  1  6  0  0  0
 30 36  1  6  0  0  0
 33 37  1  0  0  0  0
 31 26  1  1  0  0  0
M  END
>  <cdx:fragmentId>
5

$$$$
