99686.cdx
  Mrv1902 05222410252D          

 26 29  0  0  0  0            999 V2000
    4.9412   -7.9063    0.0000 C   0  0  0  0  0  0  0  0  0  0  0  0
    4.9412   -8.7313    0.0000 C   0  0  0  0  0  0  0  0  0  0  0  0
    5.6556   -9.1438    0.0000 C   0  0  0  0  0  0  0  0  0  0  0  0
    6.3701   -8.7313    0.0000 C   0  0  0  0  0  0  0  0  0  0  0  0
    6.3701   -7.9063    0.0000 C   0  0  0  0  0  0  0  0  0  0  0  0
    5.6556   -7.4937    0.0000 C   0  0  0  0  0  0  0  0  0  0  0  0
    7.0846   -9.1438    0.0000 C   0  0  0  0  0  0  0  0  0  0  0  0
    7.7991   -8.7313    0.0000 C   0  0  0  0  0  0  0  0  0  0  0  0
    7.7991   -7.9063    0.0000 C   0  0  0  0  0  0  0  0  0  0  0  0
    7.0846   -7.4937    0.0000 C   0  0  0  0  0  0  0  0  0  0  0  0
    8.5135   -7.4937    0.0000 C   0  0  0  0  0  0  0  0  0  0  0  0
    8.5135   -6.6688    0.0000 C   0  0  0  0  0  0  0  0  0  0  0  0
    7.7991   -6.2563    0.0000 C   0  0  0  0  0  0  0  0  0  0  0  0
    7.0846   -6.6688    0.0000 C   0  0  0  0  0  0  0  0  0  0  0  0
    5.2431   -9.8582    0.0000 C   0  0  0  0  0  0  0  0  0  0  0  0
    6.0681   -9.8582    0.0000 C   0  0  0  0  0  0  0  0  0  0  0  0
    6.8931   -9.8582    0.0000 O   0  0  0  0  0  0  0  0  0  0  0  0
    4.4181   -9.8582    0.0000 O   0  0  0  0  0  0  0  0  0  0  0  0
    5.6556  -10.5727    0.0000 O   0  0  0  0  0  0  0  0  0  0  0  0
    5.2431  -11.2872    0.0000 C   0  0  0  0  0  0  0  0  0  0  0  0
    6.3701   -7.0812    0.0000 C   0  0  0  0  0  0  0  0  0  0  0  0
    8.5135   -8.3187    0.0000 C   0  0  0  0  0  0  0  0  0  0  0  0
    9.2280   -7.0812    0.0000 C   0  0  2  0  0  0  0  0  0  0  0  0
    9.9425   -7.4937    0.0000 O   0  0  0  0  0  0  0  0  0  0  0  0
    9.6405   -6.3668    0.0000 C   0  0  0  0  0  0  0  0  0  0  0  0
    9.2280   -5.6523    0.0000 O   0  0  0  0  0  0  0  0  0  0  0  0
  1  2  1  0  0  0  0
  2  3  1  0  0  0  0
  3  4  1  0  0  0  0
  4  5  1  0  0  0  0
  5  6  1  0  0  0  0
  6  1  1  0  0  0  0
  4  7  1  0  0  0  0
  7  8  1  0  0  0  0
  8  9  1  0  0  0  0
  9 10  1  0  0  0  0
 10  5  1  0  0  0  0
  9 11  1  0  0  0  0
 11 12  1  0  0  0  0
 12 13  1  0  0  0  0
 13 14  1  0  0  0  0
 14 10  1  0  0  0  0
  3 15  1  0  0  0  0
  3 16  1  0  0  0  0
 16 17  1  0  0  0  0
 15 18  2  0  0  0  0
 15 19  1  0  0  0  0
 19 20  1  0  0  0  0
  5 21  1  0  0  0  0
  9 22  1  0  0  0  0
 12 23  1  0  0  0  0
 22 23  1  0  0  0  0
 23 24  1  0  0  0  0
 23 25  1  6  0  0  0
 25 26  1  0  0  0  0
M  END
>  <cdx:fragmentId>
5

$$$$
