99685.cdx
  Mrv1902 05222410252D          

 53 58  0  0  0  0            999 V2000
    6.3485   -8.8566    0.0000 C   0  0  1  0  0  0  0  0  0  0  0  0
    5.6333   -8.4452    0.0000 C   0  0  2  0  0  0  0  0  0  0  0  0
    4.9195   -8.8589    0.0000 O   0  0  0  0  0  0  0  0  0  0  0  0
    5.6320   -7.6202    0.0000 C   0  0  1  0  0  0  0  0  0  0  0  0
    4.9169   -7.2089    0.0000 O   0  0  0  0  0  0  0  0  0  0  0  0
    6.3458   -7.2066    0.0000 C   0  0  2  0  0  0  0  0  0  0  0  0
    6.3445   -6.3816    0.0000 O   0  0  0  0  0  0  0  0  0  0  0  0
    7.0609   -7.6179    0.0000 C   0  0  2  0  0  0  0  0  0  0  0  0
    7.0623   -8.4429    0.0000 O   0  0  0  0  0  0  0  0  0  0  0  0
    7.7748   -7.2043    0.0000 C   0  0  0  0  0  0  0  0  0  0  0  0
    7.7734   -6.3793    0.0000 O   0  0  0  0  0  0  0  0  0  0  0  0
    4.9209   -9.6839    0.0000 C   0  0  0  0  0  0  0  0  0  0  0  0
    4.2071  -10.0975    0.0000 C   0  0  0  0  0  0  0  0  0  0  0  0
    4.2084  -10.9225    0.0000 C   0  0  0  0  0  0  0  0  0  0  0  0
    3.4946  -11.3362    0.0000 C   0  0  0  0  0  0  0  0  0  0  0  0
    3.4959  -12.1612    0.0000 C   0  0  0  0  0  0  0  0  0  0  0  0
    5.6360  -10.0952    0.0000 O   0  0  0  0  0  0  0  0  0  0  0  0
    4.9236  -11.3339    0.0000 C   0  0  0  0  0  0  0  0  0  0  0  0
    4.9155   -6.3839    0.0000 C   0  0  1  0  0  0  0  0  0  0  0  0
    4.2473   -5.9000    0.0000 C   0  0  2  0  0  0  0  0  0  0  0  0
    3.4631   -6.1562    0.0000 O   0  0  0  0  0  0  0  0  0  0  0  0
    4.5010   -5.1150    0.0000 C   0  0  0  0  0  0  0  0  0  0  0  0
    3.7468   -4.7807    0.0000 O   0  0  0  0  0  0  0  0  0  0  0  0
    5.3260   -5.1137    0.0000 C   0  0  0  0  0  0  0  0  0  0  0  0
    5.5822   -5.8979    0.0000 O   0  0  0  0  0  0  0  0  0  0  0  0
    4.4134   -4.2947    0.0000 C   0  0  0  0  0  0  0  0  0  0  0  0
    3.6592   -3.9603    0.0000 O   0  0  0  0  0  0  0  0  0  0  0  0
   10.8817   -7.6296    0.0000 H   0  0  0  0  0  0  0  0  0  0  0  0
    8.4921   -9.2879    0.0000 H   0  0  0  0  0  0  0  0  0  0  0  0
    8.4895  -11.7629    0.0000 H   0  0  0  0  0  0  0  0  0  0  0  0
   11.2926  -10.3756    0.0000 O   0  0  0  0  0  0  0  0  0  0  0  0
    9.2052  -10.5262    0.0000 C   0  0  0  0  0  0  0  0  0  0  0  0
   11.7483   -8.9036    0.0000 C   0  0  0  0  0  0  0  0  0  0  0  0
    7.0596  -12.5864    0.0000 O   0  0  0  0  0  0  0  0  0  0  0  0
    8.4886  -12.5879    0.0000 O   0  0  0  0  0  0  0  0  0  0  0  0
    7.7745  -12.1747    0.0000 C   0  0  0  0  0  0  0  0  0  0  0  0
    9.6839   -9.0700    0.0000 C   0  0  0  0  0  0  0  0  0  0  0  0
   10.6884   -9.8138    0.0000 C   0  0  1  0  0  0  0  0  0  0  0  0
   10.9324   -9.0257    0.0000 C   0  0  0  0  0  0  0  0  0  0  0  0
   10.4684   -8.3436    0.0000 C   0  0  2  0  0  0  0  0  0  0  0  0
    9.6458   -8.2811    0.0000 C   0  0  0  0  0  0  0  0  0  0  0  0
    9.0840   -8.8853    0.0000 C   0  0  0  0  0  0  0  0  0  0  0  0
    9.2061   -9.7012    0.0000 C   0  0  1  0  0  0  0  0  0  0  0  0
    8.4912  -10.1129    0.0000 C   0  0  1  0  0  0  0  0  0  0  0  0
    7.7772   -9.6997    0.0000 C   0  0  0  0  0  0  0  0  0  0  0  0
    7.0623  -10.1114    0.0000 C   0  0  1  0  0  0  0  0  0  0  0  0
    7.0614  -10.9364    0.0000 C   0  0  0  0  0  0  0  0  0  0  0  0
    7.7754  -11.3497    0.0000 C   0  0  1  0  0  0  0  0  0  0  0  0
    8.4903  -10.9379    0.0000 C   0  0  1  0  0  0  0  0  0  0  0  0
    9.2044  -11.3512    0.0000 C   0  0  0  0  0  0  0  0  0  0  0  0
    9.9193  -10.9394    0.0000 C   0  0  0  0  0  0  0  0  0  0  0  0
    9.9201  -10.1144    0.0000 C   0  0  1  0  0  0  0  0  0  0  0  0
    6.3498   -9.6816    0.0000 O   0  0  0  0  0  0  0  0  0  0  0  0
  1  2  1  0  0  0  0
  2  3  1  6  0  0  0
  2  4  1  0  0  0  0
  4  5  1  1  0  0  0
  4  6  1  0  0  0  0
  6  7  1  6  0  0  0
  6  8  1  0  0  0  0
  8  9  1  0  0  0  0
  8 10  1  1  0  0  0
 10 11  1  0  0  0  0
  1  9  1  0  0  0  0
 12 13  1  0  0  0  0
 13 14  1  0  0  0  0
 14 15  1  0  0  0  0
 15 16  1  0  0  0  0
 12 17  2  0  0  0  0
 14 18  1  0  0  0  0
  3 12  1  0  0  0  0
 19 20  1  0  0  0  0
 20 21  1  6  0  0  0
 20 22  1  0  0  0  0
 22 23  1  0  0  0  0
 22 24  1  0  0  0  0
 24 25  1  0  0  0  0
 22 26  1  0  0  0  0
 26 27  1  0  0  0  0
 19 25  1  0  0  0  0
 19  5  1  1  0  0  0
 40 28  1  0  0  0  0
 43 29  1  1  0  0  0
 49 30  1  1  0  0  0
 38 31  1  6  0  0  0
 44 32  1  6  0  0  0
 39 33  2  0  0  0  0
 48 36  1  1  0  0  0
 36 34  1  0  0  0  0
 36 35  2  0  0  0  0
 49 44  1  0  0  0  0
 52 43  1  0  0  0  0
 40 37  1  6  0  0  0
 52 37  1  6  0  0  0
 52 38  1  0  0  0  0
 39 38  1  0  0  0  0
 40 39  1  0  0  0  0
 41 40  1  0  0  0  0
 42 41  1  0  0  0  0
 43 42  1  0  0  0  0
 44 43  1  0  0  0  0
 45 44  1  0  0  0  0
 46 45  1  0  0  0  0
 47 46  1  0  0  0  0
 48 47  1  0  0  0  0
 49 48  1  0  0  0  0
 50 49  1  0  0  0  0
 51 50  1  0  0  0  0
 52 51  1  0  0  0  0
  1 53  1  1  0  0  0
 46 53  1  1  0  0  0
M  END
>  <cdx:fragmentId>
5

$$$$
