99696.cdx
  Mrv1902 05222410232D          

 22 25  0  0  0  0            999 V2000
    6.2549   -6.5142    0.0000 N   0  0  0  0  0  0  0  0  0  0  0  0
    6.9223   -6.9991    0.0000 C   0  0  0  0  0  0  0  0  0  0  0  0
    7.7293   -6.8276    0.0000 C   0  0  0  0  0  0  0  0  0  0  0  0
    8.2813   -7.4407    0.0000 C   0  0  0  0  0  0  0  0  0  0  0  0
    8.0264   -8.2253    0.0000 C   0  0  0  0  0  0  0  0  0  0  0  0
    7.2194   -8.3968    0.0000 C   0  0  0  0  0  0  0  0  0  0  0  0
    6.6674   -7.7837    0.0000 C   0  0  0  0  0  0  0  0  0  0  0  0
    5.8424   -7.7837    0.0000 C   0  0  0  0  0  0  0  0  0  0  0  0
    5.2903   -8.3968    0.0000 C   0  0  0  0  0  0  0  0  0  0  0  0
    4.4834   -8.2253    0.0000 C   0  0  0  0  0  0  0  0  0  0  0  0
    4.2284   -7.4407    0.0000 C   0  0  0  0  0  0  0  0  0  0  0  0
    4.7805   -6.8276    0.0000 C   0  0  0  0  0  0  0  0  0  0  0  0
    5.5874   -6.9991    0.0000 C   0  0  0  0  0  0  0  0  0  0  0  0
    6.9645   -9.1814    0.0000 O   0  0  0  0  0  0  0  0  0  0  0  0
    8.5784   -8.8384    0.0000 C   0  0  0  0  0  0  0  0  0  0  0  0
    9.9985   -9.2189    0.0000 C   0  0  0  0  0  0  0  0  0  0  0  0
   10.7129   -8.8064    0.0000 N   0  0  0  0  0  0  0  0  0  0  0  0
   10.5414   -7.9994    0.0000 C   0  0  0  0  0  0  0  0  0  0  0  0
    9.7209   -7.9132    0.0000 C   0  0  0  0  0  0  0  0  0  0  0  0
    9.3854   -8.6669    0.0000 N   0  0  0  0  0  0  0  0  0  0  0  0
    9.9122  -10.0394    0.0000 C   0  0  0  0  0  0  0  0  0  0  0  0
    4.5255   -6.0430    0.0000 O   0  0  0  0  0  0  0  0  0  0  0  0
  1  2  1  0  0  0  0
  2  3  1  0  0  0  0
  3  4  1  0  0  0  0
  4  5  1  0  0  0  0
  5  6  1  0  0  0  0
  6  7  1  0  0  0  0
  2  7  2  0  0  0  0
  7  8  1  0  0  0  0
  8  9  1  0  0  0  0
  9 10  2  0  0  0  0
 10 11  1  0  0  0  0
 11 12  2  0  0  0  0
 12 13  1  0  0  0  0
  8 13  2  0  0  0  0
  1 13  1  0  0  0  0
  6 14  2  0  0  0  0
 16 17  2  0  0  0  0
 17 18  1  0  0  0  0
 18 19  2  0  0  0  0
 19 20  1  0  0  0  0
 16 20  1  0  0  0  0
 16 21  1  0  0  0  0
 15 20  1  0  0  0  0
  5 15  1  0  0  0  0
 12 22  1  0  0  0  0
M  END
>  <cdx:groupId>
87

>  <cdx:fragmentId>
10

$$$$
