99694.cdx
  Mrv1902 05222410242D          

 34 36  0  0  0  0            999 V2000
    5.3537   -8.6350    0.0000 C   0  0  0  0  0  0  0  0  0  0  0  0
    5.3537   -9.4600    0.0000 C   0  0  0  0  0  0  0  0  0  0  0  0
    6.0681   -9.8725    0.0000 C   0  0  0  0  0  0  0  0  0  0  0  0
    6.7826   -9.4600    0.0000 C   0  0  1  0  0  0  0  0  0  0  0  0
    6.7826   -8.6350    0.0000 C   0  0  1  0  0  0  0  0  0  0  0  0
    6.0681   -8.2225    0.0000 C   0  0  0  0  0  0  0  0  0  0  0  0
    5.3537  -11.1100    0.0000 C   0  0  0  0  0  0  0  0  0  0  0  0
    6.0681  -10.6975    0.0000 C   0  0  0  0  0  0  0  0  0  0  0  0
    5.3537  -11.9350    0.0000 C   0  0  0  0  0  0  0  0  0  0  0  0
    6.0681  -12.3475    0.0000 C   0  0  0  0  0  0  0  0  0  0  0  0
    6.7826  -11.9350    0.0000 C   0  0  0  0  0  0  0  0  0  0  0  0
    4.6392  -12.3475    0.0000 C   0  0  0  0  0  0  0  0  0  0  0  0
    4.6392  -13.1725    0.0000 C   0  0  2  0  0  0  0  0  0  0  0  0
    5.3537  -13.5850    0.0000 C   0  0  0  0  0  0  0  0  0  0  0  0
    6.0681  -13.1725    0.0000 C   0  0  0  0  0  0  0  0  0  0  0  0
    6.7826   -7.8100    0.0000 C   0  0  0  0  0  0  0  0  0  0  0  0
    3.9247  -13.5850    0.0000 O   0  0  0  0  0  0  0  0  0  0  0  0
    6.7826  -10.2850    0.0000 H   0  0  0  0  0  0  0  0  0  0  0  0
    7.5672   -9.7149    0.0000 C   0  0  0  0  0  0  0  0  0  0  0  0
    8.0522   -9.0475    0.0000 C   0  0  0  0  0  0  0  0  0  0  0  0
    7.5672   -8.3801    0.0000 C   0  0  2  0  0  0  0  0  0  0  0  0
    7.8222   -7.5954    0.0000 C   0  0  2  0  0  0  0  0  0  0  0  0
    7.2701   -6.9823    0.0000 C   0  0  0  0  0  0  0  0  0  0  0  0
    8.6292   -7.4239    0.0000 C   0  0  0  0  0  0  0  0  0  0  0  0
    8.8841   -6.6393    0.0000 C   0  0  0  0  0  0  0  0  0  0  0  0
    9.6911   -6.4678    0.0000 C   0  0  0  0  0  0  0  0  0  0  0  0
    9.9460   -5.6831    0.0000 C   0  0  0  0  0  0  0  0  0  0  0  0
   10.7429   -5.8967    0.0000 O   0  0  0  0  0  0  0  0  0  0  0  0
    8.3519   -8.1251    0.0000 H   0  0  0  0  0  0  0  0  0  0  0  0
    9.1491   -5.4696    0.0000 C   0  0  0  0  0  0  0  0  0  0  0  0
   10.1595   -4.8863    0.0000 C   0  0  0  0  0  0  0  0  0  0  0  0
    9.3626   -4.6727    0.0000 F   0  0  0  0  0  0  0  0  0  0  0  0
   10.9564   -5.0998    0.0000 F   0  0  0  0  0  0  0  0  0  0  0  0
   10.3731   -4.0894    0.0000 F   0  0  0  0  0  0  0  0  0  0  0  0
  1  2  1  0  0  0  0
  2  3  1  0  0  0  0
  3  4  1  0  0  0  0
  4  5  1  0  0  0  0
  5  6  1  0  0  0  0
  6  1  1  0  0  0  0
  7  8  1  0  0  0  0
  8  3  2  0  0  0  0
  7  9  2  0  0  0  0
  9 10  1  0  0  0  0
 10 11  2  0  0  0  0
  9 12  1  0  0  0  0
 12 13  1  0  0  0  0
 13 14  1  0  0  0  0
 14 15  1  0  0  0  0
 15 10  1  0  0  0  0
  5 16  1  1  0  0  0
 13 17  1  6  0  0  0
  4 18  1  6  0  0  0
  4 19  1  0  0  0  0
 19 20  1  0  0  0  0
 20 21  1  0  0  0  0
 21  5  1  0  0  0  0
 21 22  1  0  0  0  0
 22 23  1  6  0  0  0
 22 24  1  0  0  0  0
 24 25  1  0  0  0  0
 25 26  1  0  0  0  0
 26 27  1  0  0  0  0
 27 28  1  0  0  0  0
 21 29  1  6  0  0  0
 27 30  1  0  0  0  0
 27 31  1  0  0  0  0
 31 32  1  0  0  0  0
 31 33  1  0  0  0  0
 31 34  1  0  0  0  0
M  END
>  <cdx:fragmentId>
5

$$$$
