99697.cdx
  Mrv1902 05222410232D          

 31 34  0  0  0  0            999 V2000
    4.1987   -8.8413    0.0000 C   0  0  0  0  0  0  0  0  0  0  0  0
    4.1987   -9.6662    0.0000 C   0  0  1  0  0  0  0  0  0  0  0  0
    4.9131  -10.0787    0.0000 C   0  0  0  0  0  0  0  0  0  0  0  0
    5.6276   -9.6662    0.0000 C   0  0  0  0  0  0  0  0  0  0  0  0
    5.6276   -8.8413    0.0000 C   0  0  2  0  0  0  0  0  0  0  0  0
    4.9131   -8.4288    0.0000 C   0  0  0  0  0  0  0  0  0  0  0  0
    6.3421  -10.0787    0.0000 C   0  0  2  0  0  0  0  0  0  0  0  0
    7.0566   -9.6662    0.0000 C   0  0  0  0  0  0  0  0  0  0  0  0
    7.0566   -8.8413    0.0000 C   0  0  2  0  0  0  0  0  0  0  0  0
    6.3421   -8.4288    0.0000 C   0  0  2  0  0  0  0  0  0  0  0  0
    7.7710   -8.4288    0.0000 C   0  0  1  0  0  0  0  0  0  0  0  0
    7.7710   -7.6037    0.0000 C   0  0  1  0  0  0  0  0  0  0  0  0
    7.0566   -7.1913    0.0000 C   0  0  0  0  0  0  0  0  0  0  0  0
    6.3421   -7.6037    0.0000 C   0  0  0  0  0  0  0  0  0  0  0  0
    6.3421   -9.2537    0.0000 H   0  0  0  0  0  0  0  0  0  0  0  0
    6.3421  -10.9038    0.0000 C   0  0  0  0  0  0  0  0  0  0  0  0
    3.4842  -10.0787    0.0000 O   0  0  0  0  0  0  0  0  0  0  0  0
    7.0566   -8.0162    0.0000 H   0  0  0  0  0  0  0  0  0  0  0  0
    7.7710   -6.7788    0.0000 C   0  0  0  0  0  0  0  0  0  0  0  0
    7.7710   -9.2537    0.0000 H   0  0  0  0  0  0  0  0  0  0  0  0
    5.6276   -8.0162    0.0000 C   0  0  0  0  0  0  0  0  0  0  0  0
    8.5557   -8.6837    0.0000 C   0  0  0  0  0  0  0  0  0  0  0  0
    9.0406   -8.0162    0.0000 C   0  0  0  0  0  0  0  0  0  0  0  0
    8.5557   -7.3488    0.0000 C   0  0  1  0  0  0  0  0  0  0  0  0
    8.3421   -6.5519    0.0000 O   0  0  0  0  0  0  0  0  0  0  0  0
    9.2701   -6.9363    0.0000 C   0  0  0  0  0  0  0  0  0  0  0  0
    9.9846   -7.3488    0.0000 C   0  0  0  0  0  0  0  0  0  0  0  0
    9.2701   -6.1113    0.0000 O   0  0  0  0  0  0  0  0  0  0  0  0
    8.7546   -5.8375    0.0000 C   0  0  0  0  0  0  0  0  0  0  0  0
    8.3421   -5.1230    0.0000 O   0  0  0  0  0  0  0  0  0  0  0  0
    9.5796   -5.8375    0.0000 C   0  0  0  0  0  0  0  0  0  0  0  0
  1  2  1  0  0  0  0
  2  3  1  0  0  0  0
  3  4  2  0  0  0  0
  4  5  1  0  0  0  0
  5  6  1  0  0  0  0
  6  1  1  0  0  0  0
  4  7  1  0  0  0  0
  7  8  1  0  0  0  0
  8  9  1  0  0  0  0
  9 10  1  0  0  0  0
 10  5  1  0  0  0  0
  9 11  1  0  0  0  0
 11 12  1  0  0  0  0
 12 13  1  0  0  0  0
 13 14  1  0  0  0  0
 14 10  1  0  0  0  0
 10 15  1  6  0  0  0
  7 16  1  6  0  0  0
  2 17  1  1  0  0  0
  9 18  1  1  0  0  0
 12 19  1  1  0  0  0
 11 20  1  6  0  0  0
  5 21  1  1  0  0  0
 11 22  1  0  0  0  0
 22 23  1  0  0  0  0
 23 24  1  0  0  0  0
 24 12  1  0  0  0  0
 24 25  1  6  0  0  0
 24 26  1  0  0  0  0
 26 27  1  0  0  0  0
 26 28  2  0  0  0  0
 25 29  1  0  0  0  0
 29 30  2  0  0  0  0
 29 31  1  0  0  0  0
M  END
>  <cdx:fragmentId>
5

$$$$
