99693.cdx
  Mrv1902 05222410252D          

 23 25  0  0  0  0            999 V2000
    7.5688   -7.6458    0.0000 O   0  0  0  0  0  0  0  0  0  0  0  0
    8.2833   -6.4083    0.0000 O   0  0  0  0  0  0  0  0  0  0  0  0
    7.5688   -6.8208    0.0000 C   0  0  2  0  0  0  0  0  0  0  0  0
    6.8543   -6.4083    0.0000 C   0  0  1  0  0  0  0  0  0  0  0  0
    6.8543   -5.5833    0.0000 C   0  0  2  0  0  0  0  0  0  0  0  0
    7.5688   -5.1708    0.0000 C   0  0  1  0  0  0  0  0  0  0  0  0
    8.2833   -5.5833    0.0000 C   0  0  1  0  0  0  0  0  0  0  0  0
    8.9978   -5.1708    0.0000 C   0  0  0  0  0  0  0  0  0  0  0  0
    8.9978   -4.3458    0.0000 O   0  0  0  0  0  0  0  0  0  0  0  0
    7.5688   -4.3458    0.0000 O   0  0  0  0  0  0  0  0  0  0  0  0
    6.1399   -5.1708    0.0000 O   0  0  0  0  0  0  0  0  0  0  0  0
    6.1399   -6.8208    0.0000 O   0  0  0  0  0  0  0  0  0  0  0  0
    3.2820   -7.6458    0.0000 O   0  0  0  0  0  0  0  0  0  0  0  0
    4.7109   -7.6458    0.0000 O   0  0  0  0  0  0  0  0  0  0  0  0
    5.4254   -8.0583    0.0000 C   0  0  0  0  0  0  0  0  0  0  0  0
    6.1399   -7.6458    0.0000 C   0  0  0  0  0  0  0  0  0  0  0  0
    6.8543   -8.0583    0.0000 C   0  0  0  0  0  0  0  0  0  0  0  0
    6.8543   -8.8833    0.0000 C   0  0  0  0  0  0  0  0  0  0  0  0
    6.1399   -9.2958    0.0000 C   0  0  0  0  0  0  0  0  0  0  0  0
    5.4254   -8.8833    0.0000 C   0  0  0  0  0  0  0  0  0  0  0  0
    4.7109   -9.2958    0.0000 C   0  0  0  0  0  0  0  0  0  0  0  0
    3.9965   -8.8833    0.0000 C   0  0  0  0  0  0  0  0  0  0  0  0
    3.9965   -8.0583    0.0000 C   0  0  0  0  0  0  0  0  0  0  0  0
 17  1  1  0  0  0  0
 23 13  2  0  0  0  0
 23 14  1  0  0  0  0
 15 14  1  0  0  0  0
 20 15  2  0  0  0  0
 16 15  1  0  0  0  0
 17 16  2  0  0  0  0
 18 17  1  0  0  0  0
 19 18  2  0  0  0  0
 20 19  1  0  0  0  0
 21 20  1  0  0  0  0
 22 21  2  0  0  0  0
 23 22  1  0  0  0  0
  2  3  1  0  0  0  0
  3  4  1  0  0  0  0
  4  5  1  0  0  0  0
  5  6  1  0  0  0  0
  6  7  1  0  0  0  0
  2  7  1  0  0  0  0
  8  9  1  0  0  0  0
  7  8  1  1  0  0  0
  6 10  1  6  0  0  0
  5 11  1  1  0  0  0
  4 12  1  6  0  0  0
  3  1  1  1  0  0  0
M  END
>  <cdx:fragmentId>
29

$$$$
