99691.cdx
  Mrv1902 05222410252D          

 27 30  0  0  0  0            999 V2000
    8.3354   -6.1826    0.0000 H   0  0  0  0  0  0  0  0  0  0  0  0
    6.1374   -7.4711    0.0000 H   0  0  0  0  0  0  0  0  0  0  0  0
    5.9434  -10.3161    0.0000 H   0  0  0  0  0  0  0  0  0  0  0  0
    9.1539   -7.8810    0.0000 C   0  0  0  0  0  0  0  0  0  0  0  0
    9.0318   -7.0651    0.0000 O   0  0  0  0  0  0  0  0  0  0  0  0
    4.5144  -10.3146    0.0000 C   0  0  0  0  0  0  0  0  0  0  0  0
    5.6004   -7.9518    0.0000 C   0  0  0  0  0  0  0  0  0  0  0  0
    4.5136  -11.1396    0.0000 O   0  0  0  0  0  0  0  0  0  0  0  0
    5.9426  -11.1411    0.0000 O   0  0  0  0  0  0  0  0  0  0  0  0
    5.2285  -10.7279    0.0000 C   0  0  0  0  0  0  0  0  0  0  0  0
    7.1377   -7.6231    0.0000 C   0  0  0  0  0  0  0  0  0  0  0  0
    8.1423   -8.3669    0.0000 C   0  0  0  0  0  0  0  0  0  0  0  0
    8.3862   -7.5788    0.0000 C   0  0  2  0  0  0  0  0  0  0  0  0
    7.9222   -6.8967    0.0000 C   0  0  2  0  0  0  0  0  0  0  0  0
    7.0995   -6.8342    0.0000 C   0  0  0  0  0  0  0  0  0  0  0  0
    6.5378   -7.4384    0.0000 C   0  0  0  0  0  0  0  0  0  0  0  0
    6.6599   -8.2543    0.0000 C   0  0  1  0  0  0  0  0  0  0  0  0
    5.9450   -8.6661    0.0000 C   0  0  1  0  0  0  0  0  0  0  0  0
    5.2310   -8.2529    0.0000 C   0  0  0  0  0  0  0  0  0  0  0  0
    4.5161   -8.6646    0.0000 C   0  0  0  0  0  0  0  0  0  0  0  0
    4.5153   -9.4896    0.0000 C   0  0  0  0  0  0  0  0  0  0  0  0
    5.2293   -9.9029    0.0000 C   0  0  1  0  0  0  0  0  0  0  0  0
    5.9442   -9.4911    0.0000 C   0  0  1  0  0  0  0  0  0  0  0  0
    6.6583   -9.9043    0.0000 C   0  0  0  0  0  0  0  0  0  0  0  0
    7.3732   -9.4925    0.0000 C   0  0  0  0  0  0  0  0  0  0  0  0
    7.3740   -8.6675    0.0000 C   0  0  1  0  0  0  0  0  0  0  0  0
    9.7994   -7.3672    0.0000 O   0  0  0  0  0  0  0  0  0  0  0  0
 14  1  1  6  0  0  0
 17  2  1  1  0  0  0
 23  3  1  1  0  0  0
 13  4  1  0  0  0  0
 13  5  1  1  0  0  0
 22  6  1  1  0  0  0
 18  7  1  6  0  0  0
 22 10  1  0  0  0  0
 10  8  1  0  0  0  0
 10  9  2  0  0  0  0
 23 18  1  0  0  0  0
 26 17  1  0  0  0  0
 14 11  1  0  0  0  0
 26 11  1  0  0  0  0
 26 12  1  0  0  0  0
 13 12  1  0  0  0  0
 14 13  1  0  0  0  0
 15 14  1  0  0  0  0
 16 15  1  0  0  0  0
 17 16  1  0  0  0  0
 18 17  1  0  0  0  0
 19 18  1  0  0  0  0
 20 19  1  0  0  0  0
 21 20  1  0  0  0  0
 22 21  1  0  0  0  0
 23 22  1  0  0  0  0
 24 23  1  0  0  0  0
 25 24  1  0  0  0  0
 26 25  1  6  0  0  0
  4 27  1  0  0  0  0
M  END
>  <cdx:fragmentId>
5

$$$$
