99695.cdx
  Mrv1902 05222410242D          

 29 32  0  0  0  0            999 V2000
   10.0347   -6.5685    0.0000 C   0  0  0  0  0  0  0  0  0  0  0  0
   10.5867   -7.1816    0.0000 C   0  0  0  0  0  0  0  0  0  0  0  0
   10.2896   -5.7839    0.0000 O   0  0  0  0  0  0  0  0  0  0  0  0
    9.2277   -6.7400    0.0000 O   0  0  0  0  0  0  0  0  0  0  0  0
    5.3303   -8.6046    0.0000 C   0  0  0  0  0  0  0  0  0  0  0  0
    4.6158   -9.0171    0.0000 C   0  0  1  0  0  0  0  0  0  0  0  0
    4.6158   -9.8421    0.0000 C   0  0  0  0  0  0  0  0  0  0  0  0
    5.3303  -10.2546    0.0000 C   0  0  0  0  0  0  0  0  0  0  0  0
    6.0447   -9.8421    0.0000 C   0  0  2  0  0  0  0  0  0  0  0  0
    6.7592  -10.2546    0.0000 C   0  0  0  0  0  0  0  0  0  0  0  0
    7.4737   -9.8421    0.0000 C   0  0  0  0  0  0  0  0  0  0  0  0
    7.4737   -9.0171    0.0000 C   0  0  1  0  0  0  0  0  0  0  0  0
    8.1881   -8.6046    0.0000 C   0  0  2  0  0  0  0  0  0  0  0  0
    8.9728   -8.8595    0.0000 C   0  0  0  0  0  0  0  0  0  0  0  0
    9.4577   -8.1921    0.0000 C   0  0  0  0  0  0  0  0  0  0  0  0
    8.9728   -7.5246    0.0000 C   0  0  1  0  0  0  0  0  0  0  0  0
    8.1881   -7.7796    0.0000 C   0  0  1  0  0  0  0  0  0  0  0  0
    7.4737   -7.3671    0.0000 C   0  0  0  0  0  0  0  0  0  0  0  0
    6.7592   -7.7796    0.0000 C   0  0  0  0  0  0  0  0  0  0  0  0
    6.7592   -8.6046    0.0000 C   0  0  2  0  0  0  0  0  0  0  0  0
    6.0447   -9.0171    0.0000 C   0  0  1  0  0  0  0  0  0  0  0  0
    3.9013  -10.2546    0.0000 O   0  0  0  0  0  0  0  0  0  0  0  0
    8.2744   -6.9591    0.0000 C   0  0  0  0  0  0  0  0  0  0  0  0
    6.0447   -8.1921    0.0000 C   0  0  0  0  0  0  0  0  0  0  0  0
    3.9013   -8.6046    0.0000 F   0  0  0  0  0  0  0  0  0  0  0  0
    6.0447  -10.6671    0.0000 H   0  0  0  0  0  0  0  0  0  0  0  0
    7.4737   -8.1921    0.0000 H   0  0  0  0  0  0  0  0  0  0  0  0
    6.7592   -9.4296    0.0000 H   0  0  0  0  0  0  0  0  0  0  0  0
    8.1881   -9.4296    0.0000 H   0  0  0  0  0  0  0  0  0  0  0  0
  1  2  1  0  0  0  0
  1  3  2  0  0  0  0
  1  4  1  0  0  0  0
  5  6  1  0  0  0  0
  6  7  1  0  0  0  0
  7  8  1  0  0  0  0
  8  9  1  0  0  0  0
  9 10  1  0  0  0  0
 10 11  1  0  0  0  0
 11 12  1  0  0  0  0
 12 13  1  0  0  0  0
 13 14  1  0  0  0  0
 14 15  1  0  0  0  0
 15 16  1  0  0  0  0
 16 17  1  0  0  0  0
 13 17  1  0  0  0  0
 17 18  1  0  0  0  0
 18 19  1  0  0  0  0
 19 20  1  0  0  0  0
 12 20  1  0  0  0  0
 20 21  1  0  0  0  0
  9 21  1  0  0  0  0
  5 21  1  0  0  0  0
  7 22  2  0  0  0  0
 17 23  1  1  0  0  0
 21 24  1  1  0  0  0
  6 25  1  1  0  0  0
 16  4  1  1  0  0  0
  9 26  1  6  0  0  0
 12 27  1  1  0  0  0
 20 28  1  6  0  0  0
 13 29  1  6  0  0  0
M  END
>  <cdx:fragmentId>
13

$$$$
