99690.cdx
  Mrv1902 05222410252D          

 44 47  0  0  0  0            999 V2000
   12.0731   -8.4235    0.0000 C   0  0  0  0  0  0  0  0  0  0  0  0
   11.3587   -8.0110    0.0000 C   0  0  0  0  0  0  0  0  0  0  0  0
   10.6442   -8.4235    0.0000 C   0  0  0  0  0  0  0  0  0  0  0  0
    9.9297   -8.0110    0.0000 C   0  0  0  0  0  0  0  0  0  0  0  0
   11.3587   -7.1860    0.0000 O   0  0  0  0  0  0  0  0  0  0  0  0
    9.2153   -8.4235    0.0000 C   0  0  0  0  0  0  0  0  0  0  0  0
    8.5008   -8.0110    0.0000 C   0  0  0  0  0  0  0  0  0  0  0  0
    7.7863   -8.4235    0.0000 C   0  0  0  0  0  0  0  0  0  0  0  0
    7.7863   -9.2485    0.0000 C   0  0  0  0  0  0  0  0  0  0  0  0
    8.5008   -9.6610    0.0000 C   0  0  0  0  0  0  0  0  0  0  0  0
    9.2153   -9.2485    0.0000 C   0  0  0  0  0  0  0  0  0  0  0  0
    7.0718   -9.6610    0.0000 O   0  0  0  0  0  0  0  0  0  0  0  0
    5.6496   -8.0011    0.0000 C   0  0  2  0  0  0  0  0  0  0  0  0
    4.9342   -8.4119    0.0000 C   0  0  2  0  0  0  0  0  0  0  0  0
    4.9322   -9.2369    0.0000 C   0  0  1  0  0  0  0  0  0  0  0  0
    5.6457   -9.6511    0.0000 C   0  0  2  0  0  0  0  0  0  0  0  0
    6.3611   -9.2403    0.0000 C   0  0  1  0  0  0  0  0  0  0  0  0
    6.3631   -8.4153    0.0000 O   0  0  0  0  0  0  0  0  0  0  0  0
    5.6516   -7.1761    0.0000 C   0  0  0  0  0  0  0  0  0  0  0  0
    4.2167   -9.6477    0.0000 O   0  0  0  0  0  0  0  0  0  0  0  0
    4.2207   -7.9977    0.0000 O   0  0  0  0  0  0  0  0  0  0  0  0
    5.6437  -10.4761    0.0000 O   0  0  0  0  0  0  0  0  0  0  0  0
    4.9381   -6.7619    0.0000 O   0  0  0  0  0  0  0  0  0  0  0  0
    6.3572  -10.8903    0.0000 C   0  0  0  0  0  0  0  0  0  0  0  0
    6.3552  -11.7153    0.0000 C   0  0  0  0  0  0  0  0  0  0  0  0
    7.0727  -10.4795    0.0000 O   0  0  0  0  0  0  0  0  0  0  0  0
    5.6413  -12.1287    0.0000 C   0  0  0  0  0  0  0  0  0  0  0  0
    5.6413  -12.9537    0.0000 C   0  0  0  0  0  0  0  0  0  0  0  0
    6.3552  -13.3653    0.0000 C   0  0  0  0  0  0  0  0  0  0  0  0
    7.0692  -12.9537    0.0000 C   0  0  0  0  0  0  0  0  0  0  0  0
    7.0692  -12.1287    0.0000 C   0  0  0  0  0  0  0  0  0  0  0  0
    4.9269  -13.3664    0.0000 O   0  0  0  0  0  0  0  0  0  0  0  0
    6.3552  -14.1903    0.0000 O   0  0  0  0  0  0  0  0  0  0  0  0
    7.7835  -13.3664    0.0000 O   0  0  0  0  0  0  0  0  0  0  0  0
    4.9401   -5.9369    0.0000 C   0  0  0  0  0  0  0  0  0  0  0  0
    4.2266   -5.5227    0.0000 O   0  0  0  0  0  0  0  0  0  0  0  0
    5.6555   -5.5261    0.0000 C   0  0  0  0  0  0  0  0  0  0  0  0
    5.6555   -4.7011    0.0000 C   0  0  0  0  0  0  0  0  0  0  0  0
    6.3700   -4.2886    0.0000 C   0  0  0  0  0  0  0  0  0  0  0  0
    7.0845   -4.7011    0.0000 C   0  0  0  0  0  0  0  0  0  0  0  0
    7.7989   -4.2886    0.0000 C   0  0  0  0  0  0  0  0  0  0  0  0
    7.7989   -3.4636    0.0000 C   0  0  0  0  0  0  0  0  0  0  0  0
    7.0845   -3.0511    0.0000 C   0  0  0  0  0  0  0  0  0  0  0  0
    6.3700   -3.4636    0.0000 C   0  0  0  0  0  0  0  0  0  0  0  0
  1  2  1  0  0  0  0
  2  3  1  0  0  0  0
  3  4  1  0  0  0  0
  2  5  2  0  0  0  0
  6  7  1  0  0  0  0
  7  8  2  0  0  0  0
  8  9  1  0  0  0  0
  9 10  2  0  0  0  0
 10 11  1  0  0  0  0
  6 11  2  0  0  0  0
  9 12  1  0  0  0  0
  4  6  1  0  0  0  0
 13 14  1  0  0  0  0
 14 15  1  0  0  0  0
 15 16  1  0  0  0  0
 16 17  1  0  0  0  0
 17 18  1  0  0  0  0
 18 13  1  0  0  0  0
 13 19  1  1  0  0  0
 15 20  1  1  0  0  0
 14 21  1  6  0  0  0
 16 22  1  6  0  0  0
 19 23  1  0  0  0  0
 17 12  1  1  0  0  0
 22 24  1  0  0  0  0
 24 25  1  0  0  0  0
 24 26  2  0  0  0  0
 25 27  2  0  0  0  0
 27 28  1  0  0  0  0
 28 29  2  0  0  0  0
 29 30  1  0  0  0  0
 30 31  2  0  0  0  0
 31 25  1  0  0  0  0
 28 32  1  0  0  0  0
 29 33  1  0  0  0  0
 30 34  1  0  0  0  0
 23 35  1  0  0  0  0
 35 36  2  0  0  0  0
 35 37  1  0  0  0  0
 37 38  2  0  0  0  0
 38 39  1  0  0  0  0
 39 40  2  0  0  0  0
 40 41  1  0  0  0  0
 41 42  2  0  0  0  0
 42 43  1  0  0  0  0
 43 44  2  0  0  0  0
 44 39  1  0  0  0  0
M  END
>  <cdx:fragmentId>
15

$$$$
