997.cdx
  Mrv1902 05222410222D          

 12 12  0  0  0  0            999 V2000
    6.9713   -2.3647    0.0000 C   0  0  0  0  0  0  0  0  0  0  0  0
    6.2568   -2.7772    0.0000 C   0  0  0  0  0  0  0  0  0  0  0  0
    5.5423   -2.3647    0.0000 C   0  0  0  0  0  0  0  0  0  0  0  0
    6.9713   -1.5397    0.0000 O   0  0  0  0  0  0  0  0  0  0  0  0
    7.6857   -2.7772    0.0000 O   0  0  0  0  0  0  0  0  0  0  0  0
    4.8279   -2.7772    0.0000 C   0  0  0  0  0  0  0  0  0  0  0  0
    4.8279   -3.6022    0.0000 C   0  0  0  0  0  0  0  0  0  0  0  0
    4.1134   -4.0147    0.0000 C   0  0  0  0  0  0  0  0  0  0  0  0
    3.3989   -3.6022    0.0000 C   0  0  0  0  0  0  0  0  0  0  0  0
    3.3989   -2.7772    0.0000 C   0  0  0  0  0  0  0  0  0  0  0  0
    4.1134   -2.3647    0.0000 C   0  0  0  0  0  0  0  0  0  0  0  0
    6.2568   -3.6022    0.0000 O   0  0  0  0  0  0  0  0  0  0  0  0
  1  2  1  0  0  0  0
  2  3  1  0  0  0  0
  1  4  2  0  0  0  0
  1  5  1  0  0  0  0
  6  7  1  0  0  0  0
  7  8  2  0  0  0  0
  8  9  1  0  0  0  0
  9 10  2  0  0  0  0
 10 11  1  0  0  0  0
  6 11  2  0  0  0  0
  3  6  1  0  0  0  0
  2 12  2  0  0  0  0
M  END
>  <cdx:groupId>
38

>  <cdx:fragmentId>
15

$$$$
