99700.cdx
  Mrv1902 05222410212D          

 44 47  0  0  0  0            999 V2000
    5.0647   -9.7710    0.0000 C   0  0  2  0  0  0  0  0  0  0  0  0
    5.0647  -10.5960    0.0000 C   0  0  2  0  0  0  0  0  0  0  0  0
    5.7791  -11.0085    0.0000 C   0  0  1  0  0  0  0  0  0  0  0  0
    6.4936  -10.5960    0.0000 C   0  0  2  0  0  0  0  0  0  0  0  0
    6.4936   -9.7710    0.0000 C   0  0  2  0  0  0  0  0  0  0  0  0
    5.7791   -9.3585    0.0000 O   0  0  0  0  0  0  0  0  0  0  0  0
    4.3502   -9.3585    0.0000 C   0  0  0  0  0  0  0  0  0  0  0  0
    5.7791  -11.8335    0.0000 O   0  0  0  0  0  0  0  0  0  0  0  0
    7.2081   -9.3585    0.0000 O   0  0  0  0  0  0  0  0  0  0  0  0
    4.3502  -11.0085    0.0000 O   0  0  0  0  0  0  0  0  0  0  0  0
    7.2081  -11.0085    0.0000 O   0  0  0  0  0  0  0  0  0  0  0  0
    3.6357   -9.7710    0.0000 O   0  0  0  0  0  0  0  0  0  0  0  0
    2.1984   -8.1249    0.0000 C   0  0  2  0  0  0  0  0  0  0  0  0
    1.4829   -8.5357    0.0000 C   0  0  2  0  0  0  0  0  0  0  0  0
    1.4810   -9.3607    0.0000 C   0  0  1  0  0  0  0  0  0  0  0  0
    2.1945   -9.7749    0.0000 C   0  0  2  0  0  0  0  0  0  0  0  0
    2.9099   -9.3641    0.0000 C   0  0  2  0  0  0  0  0  0  0  0  0
    2.9118   -8.5391    0.0000 O   0  0  0  0  0  0  0  0  0  0  0  0
    2.2003   -7.2999    0.0000 C   0  0  0  0  0  0  0  0  0  0  0  0
    0.7655   -9.7715    0.0000 O   0  0  0  0  0  0  0  0  0  0  0  0
    0.7694   -8.1215    0.0000 O   0  0  0  0  0  0  0  0  0  0  0  0
    2.1925  -10.5999    0.0000 O   0  0  0  0  0  0  0  0  0  0  0  0
    1.4868   -6.8857    0.0000 O   0  0  0  0  0  0  0  0  0  0  0  0
    9.6579   -7.9089    0.0000 O   0  0  0  0  0  0  0  0  0  0  0  0
    5.8285   -8.1492    0.0000 O   0  0  0  0  0  0  0  0  0  0  0  0
    6.4109   -8.7335    0.0000 C   0  0  0  0  0  0  0  0  0  0  0  0
    7.5140   -6.4086    0.0000 O   0  0  0  0  0  0  0  0  0  0  0  0
    6.1173   -7.5358    0.0000 O   0  0  0  0  0  0  0  0  0  0  0  0
    9.0177   -7.3887    0.0000 C   0  0  0  0  0  0  0  0  0  0  0  0
    7.5558   -7.2325    0.0000 C   0  0  1  0  0  0  0  0  0  0  0  0
    6.9138   -7.7507    0.0000 C   0  0  1  0  0  0  0  0  0  0  0  0
    7.2082   -8.5214    0.0000 C   0  0  1  0  0  0  0  0  0  0  0  0
    8.0321   -8.4796    0.0000 O   0  0  0  0  0  0  0  0  0  0  0  0
    8.2470   -7.6830    0.0000 C   0  0  2  0  0  0  0  0  0  0  0  0
   10.4007   -6.6720    0.0000 O   0  0  0  0  0  0  0  0  0  0  0  0
   10.3821   -7.4968    0.0000 C   0  0  0  0  0  0  0  0  0  0  0  0
   11.0871   -7.9253    0.0000 C   0  0  0  0  0  0  0  0  0  0  0  0
   11.8107   -7.5290    0.0000 C   0  0  0  0  0  0  0  0  0  0  0  0
   13.9442   -7.9897    0.0000 C   0  0  0  0  0  0  0  0  0  0  0  0
   13.2392   -7.5612    0.0000 C   0  0  0  0  0  0  0  0  0  0  0  0
   12.5157   -7.9575    0.0000 C   0  0  0  0  0  0  0  0  0  0  0  0
   12.4971   -8.7823    0.0000 C   0  0  0  0  0  0  0  0  0  0  0  0
   13.2021   -9.2108    0.0000 C   0  0  0  0  0  0  0  0  0  0  0  0
   13.9257   -8.8145    0.0000 C   0  0  0  0  0  0  0  0  0  0  0  0
  1  2  1  0  0  0  0
  2  3  1  0  0  0  0
  3  4  1  0  0  0  0
  4  5  1  0  0  0  0
  5  6  1  0  0  0  0
  6  1  1  0  0  0  0
  1  7  1  1  0  0  0
  3  8  1  1  0  0  0
  5  9  1  6  0  0  0
  2 10  1  6  0  0  0
  4 11  1  6  0  0  0
  7 12  1  0  0  0  0
 13 14  1  0  0  0  0
 14 15  1  0  0  0  0
 15 16  1  0  0  0  0
 16 17  1  0  0  0  0
 17 18  1  0  0  0  0
 18 13  1  0  0  0  0
 13 19  1  1  0  0  0
 15 20  1  1  0  0  0
 14 21  1  6  0  0  0
 16 22  1  6  0  0  0
 19 23  1  0  0  0  0
 17 12  1  6  0  0  0
 29 24  1  0  0  0  0
 26 25  1  0  0  0  0
 32 26  1  0  0  0  0
 30 27  1  6  0  0  0
 31 28  1  1  0  0  0
 34 29  1  1  0  0  0
 30 34  1  0  0  0  0
 31 30  1  0  0  0  0
 32 31  1  0  0  0  0
 33 32  1  0  0  0  0
 34 33  1  0  0  0  0
 32  9  1  1  0  0  0
 36 35  2  0  0  0  0
 37 36  1  0  0  0  0
 38 37  2  0  0  0  0
 41 38  1  0  0  0  0
 39 44  1  0  0  0  0
 40 39  2  0  0  0  0
 41 40  1  0  0  0  0
 42 41  2  0  0  0  0
 43 42  1  0  0  0  0
 44 43  2  0  0  0  0
 36 24  1  0  0  0  0
M  END
>  <cdx:fragmentId>
336

$$$$
