99704.cdx
  Mrv1902 05222410222D          

 49 49  0  0  0  0            999 V2000
    5.1826  -11.1301    0.0000 N   0  0  0  0  0  0  0  0  0  0  0  0
    4.0395  -11.1432    0.0000 C   0  0  0  0  0  0  0  0  0  0  0  0
    4.6073  -10.8066    0.0000 C   0  0  1  0  0  0  0  0  0  0  0  0
    4.5997  -10.1467    0.0000 C   0  0  1  0  0  0  0  0  0  0  0  0
    4.0244   -9.8233    0.0000 C   0  0  0  0  0  0  0  0  0  0  0  0
    4.0169   -9.1633    0.0000 C   0  0  0  0  0  0  0  0  0  0  0  0
    3.4415   -8.8399    0.0000 C   0  0  0  0  0  0  0  0  0  0  0  0
    3.4340   -8.1799    0.0000 C   0  0  0  0  0  0  0  0  0  0  0  0
    2.8587   -7.8565    0.0000 C   0  0  0  0  0  0  0  0  0  0  0  0
    2.5222   -7.2887    0.0000 C   0  0  0  0  0  0  0  0  0  0  0  0
    2.5146   -6.6287    0.0000 C   0  0  0  0  0  0  0  0  0  0  0  0
    1.9393   -6.3053    0.0000 C   0  0  0  0  0  0  0  0  0  0  0  0
    1.9317   -5.6453    0.0000 C   0  0  0  0  0  0  0  0  0  0  0  0
    1.3564   -5.3219    0.0000 C   0  0  0  0  0  0  0  0  0  0  0  0
    1.3489   -4.6619    0.0000 C   0  0  0  0  0  0  0  0  0  0  0  0
    0.7736   -4.3385    0.0000 C   0  0  0  0  0  0  0  0  0  0  0  0
    0.7660   -3.6786    0.0000 C   0  0  0  0  0  0  0  0  0  0  0  0
    0.1907   -3.3551    0.0000 C   0  0  0  0  0  0  0  0  0  0  0  0
    0.1831   -2.6952    0.0000 C   0  0  0  0  0  0  0  0  0  0  0  0
    3.4642  -10.8197    0.0000 O   0  0  0  0  0  0  0  0  0  0  0  0
    2.3211  -10.8328    0.0000 O   0  0  0  0  0  0  0  0  0  0  0  0
    2.8964  -11.1562    0.0000 C   0  0  2  0  0  0  0  0  0  0  0  0
    2.9040  -11.8162    0.0000 C   0  0  1  0  0  0  0  0  0  0  0  0
    2.3362  -12.1527    0.0000 C   0  0  2  0  0  0  0  0  0  0  0  0
    1.7609  -11.8293    0.0000 C   0  0  1  0  0  0  0  0  0  0  0  0
    1.7534  -11.1693    0.0000 C   0  0  1  0  0  0  0  0  0  0  0  0
    1.1780  -10.8459    0.0000 C   0  0  0  0  0  0  0  0  0  0  0  0
    1.1705  -10.1859    0.0000 O   0  0  0  0  0  0  0  0  0  0  0  0
    1.1931  -12.1658    0.0000 O   0  0  0  0  0  0  0  0  0  0  0  0
    2.3438  -12.8127    0.0000 O   0  0  0  0  0  0  0  0  0  0  0  0
    3.4793  -12.1396    0.0000 O   0  0  0  0  0  0  0  0  0  0  0  0
    5.1675   -9.8102    0.0000 O   0  0  0  0  0  0  0  0  0  0  0  0
    5.7428  -10.1336    0.0000 O   0  0  0  0  0  0  0  0  0  0  0  0
   14.3272  -11.0255    0.0000 C   0  0  0  0  0  0  0  0  0  0  0  0
   13.7519  -10.7020    0.0000 C   0  0  0  0  0  0  0  0  0  0  0  0
   13.1841  -11.0385    0.0000 C   0  0  0  0  0  0  0  0  0  0  0  0
   12.6088  -10.7151    0.0000 C   0  0  0  0  0  0  0  0  0  0  0  0
   12.0411  -11.0516    0.0000 C   0  0  0  0  0  0  0  0  0  0  0  0
   11.4657  -10.7282    0.0000 C   0  0  0  0  0  0  0  0  0  0  0  0
   10.8980  -11.0647    0.0000 C   0  0  0  0  0  0  0  0  0  0  0  0
   10.3227  -10.7413    0.0000 C   0  0  0  0  0  0  0  0  0  0  0  0
    9.7549  -11.0778    0.0000 C   0  0  0  0  0  0  0  0  0  0  0  0
    9.1796  -10.7543    0.0000 C   0  0  0  0  0  0  0  0  0  0  0  0
    8.6118  -11.0909    0.0000 C   0  0  0  0  0  0  0  0  0  0  0  0
    8.0365  -10.7674    0.0000 C   0  0  0  0  0  0  0  0  0  0  0  0
    7.4687  -11.1039    0.0000 C   0  0  0  0  0  0  0  0  0  0  0  0
    6.8934  -10.7805    0.0000 C   0  0  0  0  0  0  0  0  0  0  0  0
    6.3257  -11.1170    0.0000 C   0  0  0  0  0  0  0  0  0  0  0  0
    5.7504  -10.7936    0.0000 C   0  0  0  0  0  0  0  0  0  0  0  0
 49  1  1  0  0  0  0
 49 33  2  0  0  0  0
 35 34  1  0  0  0  0
 36 35  1  0  0  0  0
 37 36  1  0  0  0  0
 38 37  1  0  0  0  0
 39 38  1  0  0  0  0
 40 39  1  0  0  0  0
 41 40  1  0  0  0  0
 42 41  1  0  0  0  0
 43 42  1  0  0  0  0
 44 43  1  0  0  0  0
 45 44  1  0  0  0  0
 46 45  1  0  0  0  0
 47 46  1  0  0  0  0
 48 47  1  0  0  0  0
 49 48  1  0  0  0  0
  3  2  1  1  0  0  0
  3  4  1  0  0  0  0
  4  5  1  0  0  0  0
  5  6  2  0  0  0  0
  6  7  1  0  0  0  0
  7  8  1  0  0  0  0
  8  9  1  0  0  0  0
  9 10  2  0  0  0  0
 10 11  1  0  0  0  0
 11 12  1  0  0  0  0
 12 13  1  0  0  0  0
 13 14  1  0  0  0  0
 14 15  1  0  0  0  0
 15 16  1  0  0  0  0
 16 17  1  0  0  0  0
 17 18  1  0  0  0  0
 18 19  1  0  0  0  0
 21 22  1  0  0  0  0
 22 23  1  0  0  0  0
 23 24  1  0  0  0  0
 24 25  1  0  0  0  0
 25 26  1  0  0  0  0
 21 26  1  0  0  0  0
 27 28  1  0  0  0  0
 26 27  1  1  0  0  0
 25 29  1  6  0  0  0
 24 30  1  1  0  0  0
 23 31  1  6  0  0  0
 22 20  1  1  0  0  0
  2 20  1  0  0  0  0
  4 32  1  1  0  0  0
  1  3  1  0  0  0  0
M  END
>  <cdx:fragmentId>
51

$$$$
