99701.cdx
  Mrv1902 05222410202D          

112124  0  0  0  0            999 V2000
    3.7862   -3.3413    0.0000 C   0  0  0  0  0  0  0  0  0  0  0  0
    3.7862   -4.1662    0.0000 C   0  0  0  0  0  0  0  0  0  0  0  0
    4.5006   -4.5788    0.0000 C   0  0  0  0  0  0  0  0  0  0  0  0
    5.2151   -4.1662    0.0000 C   0  0  0  0  0  0  0  0  0  0  0  0
    5.2151   -3.3413    0.0000 C   0  0  0  0  0  0  0  0  0  0  0  0
    4.5006   -2.9288    0.0000 C   0  0  0  0  0  0  0  0  0  0  0  0
    3.0717   -4.5788    0.0000 O   0  0  0  0  0  0  0  0  0  0  0  0
    3.0717   -5.4037    0.0000 O   0  0  0  0  0  0  0  0  0  0  0  0
    3.7862   -5.8163    0.0000 C   0  0  0  0  0  0  0  0  0  0  0  0
    4.5006   -5.4037    0.0000 C   0  0  0  0  0  0  0  0  0  0  0  0
    3.7862   -6.6412    0.0000 C   0  0  0  0  0  0  0  0  0  0  0  0
    4.5006   -7.0537    0.0000 C   0  0  0  0  0  0  0  0  0  0  0  0
    5.2151   -6.6412    0.0000 C   0  0  0  0  0  0  0  0  0  0  0  0
    5.2151   -5.8163    0.0000 C   0  0  0  0  0  0  0  0  0  0  0  0
    6.0120   -3.9527    0.0000 C   0  0  0  0  0  0  0  0  0  0  0  0
    6.0120   -6.0298    0.0000 C   0  0  0  0  0  0  0  0  0  0  0  0
    6.0120   -3.1277    0.0000 O   0  0  0  0  0  0  0  0  0  0  0  0
    6.0120   -6.8548    0.0000 O   0  0  0  0  0  0  0  0  0  0  0  0
    8.4472   -4.2710    0.0000 C   0  0  2  0  0  0  0  0  0  0  0  0
    8.4472   -5.0960    0.0000 C   0  0  2  0  0  0  0  0  0  0  0  0
    9.1616   -5.5085    0.0000 C   0  0  1  0  0  0  0  0  0  0  0  0
    9.8761   -5.0960    0.0000 C   0  0  2  0  0  0  0  0  0  0  0  0
    9.8761   -4.2710    0.0000 C   0  0  2  0  0  0  0  0  0  0  0  0
    9.1616   -3.8585    0.0000 O   0  0  0  0  0  0  0  0  0  0  0  0
    7.7327   -3.8585    0.0000 C   0  0  0  0  0  0  0  0  0  0  0  0
    9.1616   -6.3335    0.0000 O   0  0  0  0  0  0  0  0  0  0  0  0
   10.5906   -3.8585    0.0000 O   0  0  0  0  0  0  0  0  0  0  0  0
    7.7327   -5.5085    0.0000 O   0  0  0  0  0  0  0  0  0  0  0  0
   10.5906   -5.5085    0.0000 O   0  0  0  0  0  0  0  0  0  0  0  0
    7.0182   -4.2710    0.0000 O   0  0  0  0  0  0  0  0  0  0  0  0
    9.1492   -7.9950    0.0000 C   0  0  0  0  0  0  0  0  0  0  0  0
    9.1460   -8.8200    0.0000 C   0  0  0  0  0  0  0  0  0  0  0  0
    9.8589   -9.2352    0.0000 C   0  0  0  0  0  0  0  0  0  0  0  0
   10.5750   -8.8255    0.0000 C   0  0  0  0  0  0  0  0  0  0  0  0
   10.5781   -8.0005    0.0000 C   0  0  0  0  0  0  0  0  0  0  0  0
    9.8652   -7.5852    0.0000 C   0  0  0  0  0  0  0  0  0  0  0  0
    8.4300   -9.2298    0.0000 O   0  0  0  0  0  0  0  0  0  0  0  0
    9.8557  -10.0602    0.0000 O   0  0  0  0  0  0  0  0  0  0  0  0
   11.2878   -9.2407    0.0000 O   0  0  0  0  0  0  0  0  0  0  0  0
   11.2942   -7.5907    0.0000 C   0  0  0  0  0  0  0  0  0  0  0  0
   12.0071   -8.0060    0.0000 C   0  0  0  0  0  0  0  0  0  0  0  0
   12.7231   -7.5962    0.0000 C   0  0  0  0  0  0  0  0  0  0  0  0
   12.7263   -6.7712    0.0000 C   0  0  0  0  0  0  0  0  0  0  0  0
   12.0134   -6.3560    0.0000 C   0  0  0  0  0  0  0  0  0  0  0  0
   11.2973   -6.7657    0.0000 C   0  0  0  0  0  0  0  0  0  0  0  0
   12.0039   -8.8310    0.0000 O   0  0  0  0  0  0  0  0  0  0  0  0
   13.4360   -8.0115    0.0000 O   0  0  0  0  0  0  0  0  0  0  0  0
   13.4423   -6.3615    0.0000 O   0  0  0  0  0  0  0  0  0  0  0  0
    9.8684   -6.7603    0.0000 C   0  0  0  0  0  0  0  0  0  0  0  0
   10.5845   -6.3505    0.0000 C   0  0  0  0  0  0  0  0  0  0  0  0
   10.2836   -6.0474    0.0000 O   0  0  0  0  0  0  0  0  0  0  0  0
   10.1692   -7.0634    0.0000 O   0  0  0  0  0  0  0  0  0  0  0  0
    2.8924  -14.6619    0.0000 C   0  0  0  0  0  0  0  0  0  0  0  0
    2.8893  -15.4869    0.0000 C   0  0  0  0  0  0  0  0  0  0  0  0
    3.6022  -15.9021    0.0000 C   0  0  0  0  0  0  0  0  0  0  0  0
    4.3182  -15.4923    0.0000 C   0  0  0  0  0  0  0  0  0  0  0  0
    4.3214  -14.6673    0.0000 C   0  0  0  0  0  0  0  0  0  0  0  0
    3.6085  -14.2521    0.0000 C   0  0  0  0  0  0  0  0  0  0  0  0
    2.1732  -15.8966    0.0000 O   0  0  0  0  0  0  0  0  0  0  0  0
    3.5990  -16.7271    0.0000 O   0  0  0  0  0  0  0  0  0  0  0  0
    5.0311  -15.9076    0.0000 O   0  0  0  0  0  0  0  0  0  0  0  0
    5.0374  -14.2576    0.0000 C   0  0  0  0  0  0  0  0  0  0  0  0
    5.7503  -14.6728    0.0000 C   0  0  0  0  0  0  0  0  0  0  0  0
    6.4664  -14.2631    0.0000 C   0  0  0  0  0  0  0  0  0  0  0  0
    6.4695  -13.4381    0.0000 C   0  0  0  0  0  0  0  0  0  0  0  0
    5.7566  -13.0228    0.0000 C   0  0  0  0  0  0  0  0  0  0  0  0
    5.0406  -13.4326    0.0000 C   0  0  0  0  0  0  0  0  0  0  0  0
    5.7471  -15.4978    0.0000 O   0  0  0  0  0  0  0  0  0  0  0  0
    7.1792  -14.6783    0.0000 O   0  0  0  0  0  0  0  0  0  0  0  0
    7.1856  -13.0283    0.0000 O   0  0  0  0  0  0  0  0  0  0  0  0
    3.6117  -13.4271    0.0000 C   0  0  0  0  0  0  0  0  0  0  0  0
    4.3277  -13.0174    0.0000 C   0  0  0  0  0  0  0  0  0  0  0  0
    4.3309  -12.1924    0.0000 O   0  0  0  0  0  0  0  0  0  0  0  0
    4.0269  -12.7142    0.0000 O   0  0  0  0  0  0  0  0  0  0  0  0
    3.9125  -13.7302    0.0000 O   0  0  0  0  0  0  0  0  0  0  0  0
    4.5006   -2.1037    0.0000 O   0  0  0  0  0  0  0  0  0  0  0  0
    3.0717   -2.9288    0.0000 O   0  0  0  0  0  0  0  0  0  0  0  0
    3.0717   -7.0537    0.0000 O   0  0  0  0  0  0  0  0  0  0  0  0
    4.5006   -7.8787    0.0000 O   0  0  0  0  0  0  0  0  0  0  0  0
    5.7985   -7.2246    0.0000 O   0  0  0  0  0  0  0  0  0  0  0  0
    5.0705   -8.4605    0.0000 C   0  0  0  0  0  0  0  0  0  0  0  0
    5.0681   -9.2855    0.0000 C   0  0  0  0  0  0  0  0  0  0  0  0
    5.7814   -9.7000    0.0000 C   0  0  0  0  0  0  0  0  0  0  0  0
    6.4971   -9.2896    0.0000 C   0  0  0  0  0  0  0  0  0  0  0  0
    6.4994   -8.4646    0.0000 C   0  0  0  0  0  0  0  0  0  0  0  0
    5.7862   -8.0500    0.0000 C   0  0  0  0  0  0  0  0  0  0  0  0
    7.2151   -8.0541    0.0000 O   0  0  0  0  0  0  0  0  0  0  0  0
    7.2103   -9.7041    0.0000 O   0  0  0  0  0  0  0  0  0  0  0  0
    4.3525   -9.6959    0.0000 C   0  0  0  0  0  0  0  0  0  0  0  0
    4.3501  -10.5209    0.0000 O   0  0  0  0  0  0  0  0  0  0  0  0
    3.6392   -9.2813    0.0000 O   0  0  0  0  0  0  0  0  0  0  0  0
    2.1909  -10.9397    0.0000 C   0  0  2  0  0  0  0  0  0  0  0  0
    2.1909  -11.7647    0.0000 C   0  0  2  0  0  0  0  0  0  0  0  0
    2.9054  -12.1772    0.0000 C   0  0  1  0  0  0  0  0  0  0  0  0
    3.6199  -11.7647    0.0000 C   0  0  2  0  0  0  0  0  0  0  0  0
    3.6199  -10.9397    0.0000 C   0  0  1  0  0  0  0  0  0  0  0  0
    2.9054  -10.5272    0.0000 O   0  0  0  0  0  0  0  0  0  0  0  0
    1.4764  -10.5272    0.0000 C   0  0  0  0  0  0  0  0  0  0  0  0
    2.9054  -13.0022    0.0000 O   0  0  0  0  0  0  0  0  0  0  0  0
    1.4764  -12.1772    0.0000 O   0  0  0  0  0  0  0  0  0  0  0  0
    0.7620  -10.9397    0.0000 O   0  0  0  0  0  0  0  0  0  0  0  0
    9.8769   -2.6125    0.0000 O   0  0  0  0  0  0  0  0  0  0  0  0
   10.5914   -3.0250    0.0000 C   0  0  0  0  0  0  0  0  0  0  0  0
   11.3058   -2.6125    0.0000 C   0  0  0  0  0  0  0  0  0  0  0  0
   12.0203   -3.0250    0.0000 C   0  0  0  0  0  0  0  0  0  0  0  0
   12.7348   -2.6125    0.0000 C   0  0  0  0  0  0  0  0  0  0  0  0
   12.7348   -1.7875    0.0000 C   0  0  0  0  0  0  0  0  0  0  0  0
   12.0203   -1.3750    0.0000 C   0  0  0  0  0  0  0  0  0  0  0  0
   11.3058   -1.7875    0.0000 C   0  0  0  0  0  0  0  0  0  0  0  0
   12.0203   -0.5500    0.0000 O   0  0  0  0  0  0  0  0  0  0  0  0
   13.4493   -1.3750    0.0000 O   0  0  0  0  0  0  0  0  0  0  0  0
   13.4493   -3.0250    0.0000 O   0  0  0  0  0  0  0  0  0  0  0  0
  1  2  2  0  0  0  0
  2  3  1  0  0  0  0
  3  4  2  0  0  0  0
  4  5  1  0  0  0  0
  5  6  2  0  0  0  0
  6  1  1  0  0  0  0
  2  7  1  0  0  0  0
  8  9  1  0  0  0  0
  9 10  2  0  0  0  0
 10  3  1  0  0  0  0
  9 11  1  0  0  0  0
 11 12  2  0  0  0  0
 12 13  1  0  0  0  0
 13 14  2  0  0  0  0
 14 10  1  0  0  0  0
  4 15  1  0  0  0  0
 14 16  1  0  0  0  0
 15 17  2  0  0  0  0
 16 18  2  0  0  0  0
 19 20  1  0  0  0  0
 20 21  1  0  0  0  0
 21 22  1  0  0  0  0
 22 23  1  0  0  0  0
 23 24  1  0  0  0  0
 24 19  1  0  0  0  0
 19 25  1  1  0  0  0
 21 26  1  1  0  0  0
 23 27  1  6  0  0  0
 20 28  1  6  0  0  0
 22 29  1  6  0  0  0
 25 30  1  0  0  0  0
 15 30  1  0  0  0  0
 16 28  1  0  0  0  0
 31 32  2  0  0  0  0
 32 33  1  0  0  0  0
 33 34  2  0  0  0  0
 34 35  1  0  0  0  0
 35 36  2  0  0  0  0
 36 31  1  0  0  0  0
 32 37  1  0  0  0  0
 33 38  1  0  0  0  0
 34 39  1  0  0  0  0
 35 40  1  0  0  0  0
 40 41  2  0  0  0  0
 41 42  1  0  0  0  0
 42 43  2  0  0  0  0
 43 44  1  0  0  0  0
 44 45  2  0  0  0  0
 45 40  1  0  0  0  0
 41 46  1  0  0  0  0
 42 47  1  0  0  0  0
 43 48  1  0  0  0  0
 36 49  1  0  0  0  0
 45 50  1  0  0  0  0
 49 51  2  0  0  0  0
 50 52  2  0  0  0  0
 53 54  2  0  0  0  0
 54 55  1  0  0  0  0
 55 56  2  0  0  0  0
 56 57  1  0  0  0  0
 57 58  2  0  0  0  0
 58 53  1  0  0  0  0
 54 59  1  0  0  0  0
 55 60  1  0  0  0  0
 56 61  1  0  0  0  0
 57 62  1  0  0  0  0
 62 63  2  0  0  0  0
 63 64  1  0  0  0  0
 64 65  2  0  0  0  0
 65 66  1  0  0  0  0
 66 67  2  0  0  0  0
 67 62  1  0  0  0  0
 63 68  1  0  0  0  0
 64 69  1  0  0  0  0
 65 70  1  0  0  0  0
 58 71  1  0  0  0  0
 67 72  1  0  0  0  0
 72 73  1  0  0  0  0
 71 74  2  0  0  0  0
 72 75  2  0  0  0  0
 50 29  1  0  0  0  0
 49 26  1  0  0  0  0
  6 76  1  0  0  0  0
  1 77  1  0  0  0  0
 11 78  1  0  0  0  0
 12 79  1  0  0  0  0
 13 80  1  0  0  0  0
 81 82  2  0  0  0  0
 82 83  1  0  0  0  0
 83 84  2  0  0  0  0
 84 85  1  0  0  0  0
 85 86  2  0  0  0  0
 86 81  1  0  0  0  0
 85 87  1  0  0  0  0
 84 88  1  0  0  0  0
 82 89  1  0  0  0  0
 89 90  1  0  0  0  0
 89 91  2  0  0  0  0
 86 80  1  0  0  0  0
 92 93  1  0  0  0  0
 93 94  1  0  0  0  0
 94 95  1  0  0  0  0
 95 96  1  0  0  0  0
 96 97  1  0  0  0  0
 97 92  1  0  0  0  0
 92 98  1  1  0  0  0
 94 99  1  1  0  0  0
 93100  1  6  0  0  0
 98101  1  0  0  0  0
 96 90  1  1  0  0  0
 95 73  1  6  0  0  0
 71 99  1  0  0  0  0
102103  2  0  0  0  0
103104  1  0  0  0  0
104105  2  0  0  0  0
105106  1  0  0  0  0
106107  2  0  0  0  0
107108  1  0  0  0  0
108109  2  0  0  0  0
109104  1  0  0  0  0
108110  1  0  0  0  0
107111  1  0  0  0  0
106112  1  0  0  0  0
103 27  1  0  0  0  0
M  END
>  <cdx:fragmentId>
5

$$$$
