99707.cdx
  Mrv1902 05222410222D          

 46 50  0  0  0  0            999 V2000
    4.0062   -9.0750    0.0000 C   0  0  0  0  0  0  0  0  0  0  0  0
    4.0062   -9.9000    0.0000 C   0  0  1  0  0  0  0  0  0  0  0  0
    4.7206  -10.3125    0.0000 C   0  0  2  0  0  0  0  0  0  0  0  0
    5.4351   -9.9000    0.0000 C   0  0  0  0  0  0  0  0  0  0  0  0
    5.4351   -9.0750    0.0000 C   0  0  2  0  0  0  0  0  0  0  0  0
    4.7206   -8.6625    0.0000 C   0  0  0  0  0  0  0  0  0  0  0  0
    6.1496  -10.3125    0.0000 C   0  0  0  0  0  0  0  0  0  0  0  0
    6.8641   -9.9000    0.0000 C   0  0  0  0  0  0  0  0  0  0  0  0
    6.8641   -9.0750    0.0000 C   0  0  2  0  0  0  0  0  0  0  0  0
    6.1496   -8.6625    0.0000 C   0  0  0  0  0  0  0  0  0  0  0  0
    7.5785   -8.6625    0.0000 C   0  0  1  0  0  0  0  0  0  0  0  0
    7.5785   -7.8375    0.0000 C   0  0  0  0  0  0  0  0  0  0  0  0
    6.8641   -7.4250    0.0000 C   0  0  0  0  0  0  0  0  0  0  0  0
    6.1496   -7.8375    0.0000 C   0  0  0  0  0  0  0  0  0  0  0  0
    8.2930   -9.0750    0.0000 C   0  0  0  0  0  0  0  0  0  0  0  0
    9.0075   -8.6625    0.0000 C   0  0  0  0  0  0  0  0  0  0  0  0
    9.0075   -7.8375    0.0000 C   0  0  2  0  0  0  0  0  0  0  0  0
    8.2930   -7.4250    0.0000 C   0  0  0  0  0  0  0  0  0  0  0  0
    9.7219   -7.4250    0.0000 C   0  0  0  0  0  0  0  0  0  0  0  0
    9.7219   -6.6000    0.0000 C   0  0  0  0  0  0  0  0  0  0  0  0
    9.0075   -6.1875    0.0000 C   0  0  0  0  0  0  0  0  0  0  0  0
    8.2930   -6.6000    0.0000 C   0  0  0  0  0  0  0  0  0  0  0  0
    9.0075   -5.3625    0.0000 C   0  0  0  0  0  0  0  0  0  0  0  0
    8.2930   -4.9500    0.0000 O   0  0  0  0  0  0  0  0  0  0  0  0
    9.7219   -4.9500    0.0000 C   0  0  0  0  0  0  0  0  0  0  0  0
    4.3081  -11.0270    0.0000 C   0  0  0  0  0  0  0  0  0  0  0  0
    4.7206  -11.7414    0.0000 O   0  0  0  0  0  0  0  0  0  0  0  0
    3.2917  -10.3125    0.0000 O   0  0  0  0  0  0  0  0  0  0  0  0
    5.1331  -11.0270    0.0000 C   0  0  0  0  0  0  0  0  0  0  0  0
    5.4351   -8.2500    0.0000 C   0  0  0  0  0  0  0  0  0  0  0  0
    6.8641   -8.2500    0.0000 C   0  0  0  0  0  0  0  0  0  0  0  0
    9.7219   -8.2500    0.0000 C   0  0  0  0  0  0  0  0  0  0  0  0
    7.5785   -9.4875    0.0000 C   0  0  0  0  0  0  0  0  0  0  0  0
   10.4364   -7.8375    0.0000 O   0  0  0  0  0  0  0  0  0  0  0  0
    9.7219   -9.0750    0.0000 O   0  0  0  0  0  0  0  0  0  0  0  0
    8.0739  -10.4978    0.0000 C   0  0  2  0  0  0  0  0  0  0  0  0
    8.4852  -11.2130    0.0000 C   0  0  2  0  0  0  0  0  0  0  0  0
    9.3102  -11.2143    0.0000 C   0  0  1  0  0  0  0  0  0  0  0  0
    9.7239  -10.5005    0.0000 C   0  0  2  0  0  0  0  0  0  0  0  0
    9.3125   -9.7854    0.0000 C   0  0  1  0  0  0  0  0  0  0  0  0
    8.4875   -9.7840    0.0000 O   0  0  0  0  0  0  0  0  0  0  0  0
    7.2489  -10.4965    0.0000 C   0  0  0  0  0  0  0  0  0  0  0  0
    9.7216  -11.9294    0.0000 O   0  0  0  0  0  0  0  0  0  0  0  0
    8.0716  -11.9268    0.0000 O   0  0  0  0  0  0  0  0  0  0  0  0
   10.5489  -10.5018    0.0000 O   0  0  0  0  0  0  0  0  0  0  0  0
    6.8352  -11.2103    0.0000 O   0  0  0  0  0  0  0  0  0  0  0  0
  1  2  1  0  0  0  0
  2  3  1  0  0  0  0
  3  4  1  0  0  0  0
  4  5  1  0  0  0  0
  5  6  1  0  0  0  0
  6  1  1  0  0  0  0
  4  7  1  0  0  0  0
  7  8  1  0  0  0  0
  8  9  1  0  0  0  0
  9 10  1  0  0  0  0
 10  5  1  0  0  0  0
  9 11  1  0  0  0  0
 11 12  1  0  0  0  0
 12 13  1  0  0  0  0
 13 14  2  0  0  0  0
 14 10  1  0  0  0  0
 11 15  1  0  0  0  0
 15 16  1  0  0  0  0
 16 17  1  0  0  0  0
 17 18  1  0  0  0  0
 18 12  2  0  0  0  0
 17 19  1  0  0  0  0
 19 20  1  0  0  0  0
 20 21  1  0  0  0  0
 21 22  1  0  0  0  0
 21 23  1  0  0  0  0
 23 24  2  0  0  0  0
 23 25  1  0  0  0  0
  3 26  1  6  0  0  0
 26 27  1  0  0  0  0
  2 28  1  1  0  0  0
  3 29  1  1  0  0  0
  5 30  1  1  0  0  0
  9 31  1  1  0  0  0
 17 32  1  1  0  0  0
 11 33  1  6  0  0  0
 32 34  2  0  0  0  0
 32 35  1  0  0  0  0
 36 37  1  0  0  0  0
 37 38  1  0  0  0  0
 38 39  1  0  0  0  0
 39 40  1  0  0  0  0
 40 41  1  0  0  0  0
 41 36  1  0  0  0  0
 36 42  1  1  0  0  0
 38 43  1  1  0  0  0
 37 44  1  6  0  0  0
 39 45  1  6  0  0  0
 42 46  1  0  0  0  0
 40 35  1  1  0  0  0
M  END
>  <cdx:fragmentId>
5

$$$$
