99708.cdx
  Mrv1902 05222410232D          

 31 33  0  0  0  0            999 V2000
    8.1172   -9.8535    0.0000 C   0  0  2  0  0  0  0  0  0  0  0  0
    8.1172  -10.6785    0.0000 C   0  0  2  0  0  0  0  0  0  0  0  0
    8.8316  -11.0910    0.0000 C   0  0  1  0  0  0  0  0  0  0  0  0
    9.5461  -10.6785    0.0000 C   0  0  2  0  0  0  0  0  0  0  0  0
    9.5461   -9.8535    0.0000 C   0  0  1  0  0  0  0  0  0  0  0  0
    8.8316   -9.4410    0.0000 O   0  0  0  0  0  0  0  0  0  0  0  0
    7.4027   -9.4410    0.0000 C   0  0  0  0  0  0  0  0  0  0  0  0
    8.8316  -11.9160    0.0000 O   0  0  0  0  0  0  0  0  0  0  0  0
   10.2606   -9.4410    0.0000 O   0  0  0  0  0  0  0  0  0  0  0  0
    7.4027  -11.0910    0.0000 O   0  0  0  0  0  0  0  0  0  0  0  0
   10.2606  -11.0910    0.0000 O   0  0  0  0  0  0  0  0  0  0  0  0
    6.6882   -9.8535    0.0000 O   0  0  0  0  0  0  0  0  0  0  0  0
   10.2606   -8.6160    0.0000 C   0  0  0  0  0  0  0  0  0  0  0  0
   10.9750   -8.2035    0.0000 C   0  0  0  0  0  0  0  0  0  0  0  0
   10.9750   -7.3785    0.0000 C   0  0  0  0  0  0  0  0  0  0  0  0
   10.2606   -6.9660    0.0000 C   0  0  0  0  0  0  0  0  0  0  0  0
    9.5461   -7.3785    0.0000 C   0  0  0  0  0  0  0  0  0  0  0  0
    9.5461   -8.2035    0.0000 C   0  0  0  0  0  0  0  0  0  0  0  0
   10.2606   -6.1410    0.0000 C   0  0  0  0  0  0  0  0  0  0  0  0
   10.9750   -5.7285    0.0000 C   0  0  0  0  0  0  0  0  0  0  0  0
   10.9750   -4.9035    0.0000 C   0  0  0  0  0  0  0  0  0  0  0  0
   11.6895   -4.4910    0.0000 O   0  0  0  0  0  0  0  0  0  0  0  0
    5.9738   -9.4410    0.0000 C   0  0  0  0  0  0  0  0  0  0  0  0
    5.2593   -9.8535    0.0000 C   0  0  0  0  0  0  0  0  0  0  0  0
    5.9738   -8.6160    0.0000 O   0  0  0  0  0  0  0  0  0  0  0  0
    4.5448   -9.4410    0.0000 C   0  0  0  0  0  0  0  0  0  0  0  0
    3.8303   -9.8535    0.0000 C   0  0  0  0  0  0  0  0  0  0  0  0
    3.8303  -10.6785    0.0000 C   0  0  0  0  0  0  0  0  0  0  0  0
    4.5448  -11.0910    0.0000 C   0  0  0  0  0  0  0  0  0  0  0  0
    5.2593  -10.6785    0.0000 C   0  0  0  0  0  0  0  0  0  0  0  0
    3.1159  -11.0910    0.0000 O   0  0  0  0  0  0  0  0  0  0  0  0
  1  2  1  0  0  0  0
  2  3  1  0  0  0  0
  3  4  1  0  0  0  0
  4  5  1  0  0  0  0
  5  6  1  0  0  0  0
  6  1  1  0  0  0  0
  1  7  1  1  0  0  0
  3  8  1  1  0  0  0
  5  9  1  1  0  0  0
  2 10  1  6  0  0  0
  4 11  1  6  0  0  0
  7 12  1  0  0  0  0
  9 13  1  0  0  0  0
 13 14  2  0  0  0  0
 14 15  1  0  0  0  0
 15 16  2  0  0  0  0
 16 17  1  0  0  0  0
 17 18  2  0  0  0  0
 18 13  1  0  0  0  0
 16 19  1  0  0  0  0
 19 20  1  0  0  0  0
 20 21  1  0  0  0  0
 21 22  1  0  0  0  0
 12 23  1  0  0  0  0
 23 24  1  0  0  0  0
 23 25  2  0  0  0  0
 24 26  2  0  0  0  0
 26 27  1  0  0  0  0
 27 28  2  0  0  0  0
 28 29  1  0  0  0  0
 29 30  2  0  0  0  0
 30 24  1  0  0  0  0
 28 31  1  0  0  0  0
M  END
>  <cdx:fragmentId>
336

$$$$
