99703.cdx
  Mrv1902 05222410212D          

 79 87  0  0  0  0            999 V2000
    7.9533  -11.5873    0.0000 C   0  0  1  0  0  0  0  0  0  0  0  0
    7.9533  -10.8943    0.0000 C   0  0  1  0  0  0  0  0  0  0  0  0
    8.5534  -10.5478    0.0000 C   0  0  0  0  0  0  0  0  0  0  0  0
    8.5534  -11.9338    0.0000 C   0  0  2  0  0  0  0  0  0  0  0  0
    8.8999  -12.5339    0.0000 C   0  0  0  0  0  0  0  0  0  0  0  0
    8.2069  -12.5339    0.0000 C   0  0  0  0  0  0  0  0  0  0  0  0
    9.1536  -11.5873    0.0000 C   0  0  2  0  0  0  0  0  0  0  0  0
    9.1536  -12.2803    0.0000 H   0  0  0  0  0  0  0  0  0  0  0  0
    9.7537  -11.9338    0.0000 C   0  0  0  0  0  0  0  0  0  0  0  0
   10.3539  -11.5873    0.0000 C   0  0  0  0  0  0  0  0  0  0  0  0
   10.3539  -10.8943    0.0000 C   0  0  1  0  0  0  0  0  0  0  0  0
   10.3539  -10.2013    0.0000 C   0  0  0  0  0  0  0  0  0  0  0  0
   10.9540  -10.5478    0.0000 C   0  0  2  0  0  0  0  0  0  0  0  0
   10.9540  -11.2408    0.0000 C   0  0  0  0  0  0  0  0  0  0  0  0
   11.5542  -10.8943    0.0000 C   0  0  0  0  0  0  0  0  0  0  0  0
   12.1543  -10.5478    0.0000 C   0  0  0  0  0  0  0  0  0  0  0  0
   12.1543   -9.8548    0.0000 C   0  0  1  0  0  0  0  0  0  0  0  0
   12.7545  -10.2013    0.0000 C   0  0  0  0  0  0  0  0  0  0  0  0
   12.7545   -9.5083    0.0000 C   0  0  0  0  0  0  0  0  0  0  0  0
   12.7545   -8.8153    0.0000 C   0  0  0  0  0  0  0  0  0  0  0  0
   12.1543   -8.4688    0.0000 C   0  0  1  0  0  0  0  0  0  0  0  0
   12.1543   -7.7758    0.0000 C   0  0  0  0  0  0  0  0  0  0  0  0
   11.5542   -8.8153    0.0000 C   0  0  2  0  0  0  0  0  0  0  0  0
   10.9540   -8.4688    0.0000 C   0  0  0  0  0  0  0  0  0  0  0  0
   11.5542   -9.5083    0.0000 C   0  0  1  0  0  0  0  0  0  0  0  0
   11.5542  -10.2013    0.0000 H   0  0  0  0  0  0  0  0  0  0  0  0
   10.9540   -9.8548    0.0000 C   0  0  0  0  0  0  0  0  0  0  0  0
   10.3539   -9.5083    0.0000 C   0  0  0  0  0  0  0  0  0  0  0  0
    9.7537   -9.8548    0.0000 C   0  0  0  0  0  0  0  0  0  0  0  0
    9.7537  -10.5478    0.0000 C   0  0  2  0  0  0  0  0  0  0  0  0
    9.1536  -10.8943    0.0000 C   0  0  1  0  0  0  0  0  0  0  0  0
    9.1536  -10.2013    0.0000 C   0  0  0  0  0  0  0  0  0  0  0  0
   12.7545  -10.8943    0.0000 O   0  0  0  0  0  0  0  0  0  0  0  0
   13.3547   -9.8548    0.0000 O   0  0  0  0  0  0  0  0  0  0  0  0
    8.5534  -13.1341    0.0000 O   0  0  0  0  0  0  0  0  0  0  0  0
    7.3531  -11.9338    0.0000 O   0  0  0  0  0  0  0  0  0  0  0  0
    7.3531  -10.5478    0.0000 O   0  0  0  0  0  0  0  0  0  0  0  0
    9.7537  -11.2408    0.0000 H   0  0  0  0  0  0  0  0  0  0  0  0
    6.1656  -10.5326    0.0000 C   0  0  2  0  0  0  0  0  0  0  0  0
    5.5638  -10.8763    0.0000 C   0  0  2  0  0  0  0  0  0  0  0  0
    5.5606  -11.5693    0.0000 C   0  0  1  0  0  0  0  0  0  0  0  0
    6.1591  -11.9186    0.0000 C   0  0  2  0  0  0  0  0  0  0  0  0
    6.7609  -11.5749    0.0000 C   0  0  1  0  0  0  0  0  0  0  0  0
    6.7641  -10.8819    0.0000 O   0  0  0  0  0  0  0  0  0  0  0  0
    6.1688   -9.8396    0.0000 C   0  0  0  0  0  0  0  0  0  0  0  0
    4.9588  -11.9130    0.0000 O   0  0  0  0  0  0  0  0  0  0  0  0
    4.9653  -10.5270    0.0000 O   0  0  0  0  0  0  0  0  0  0  0  0
    6.1558  -12.6116    0.0000 O   0  0  0  0  0  0  0  0  0  0  0  0
    6.1626   -7.7585    0.0000 C   0  0  2  0  0  0  0  0  0  0  0  0
    5.5633   -7.4105    0.0000 C   0  0  2  0  0  0  0  0  0  0  0  0
    4.9623   -7.7555    0.0000 C   0  0  1  0  0  0  0  0  0  0  0  0
    4.9605   -8.4485    0.0000 C   0  0  2  0  0  0  0  0  0  0  0  0
    5.5598   -8.7965    0.0000 C   0  0  1  0  0  0  0  0  0  0  0  0
    6.1608   -8.4515    0.0000 O   0  0  0  0  0  0  0  0  0  0  0  0
    6.7636   -7.4135    0.0000 C   0  0  0  0  0  0  0  0  0  0  0  0
    4.3630   -7.4075    0.0000 O   0  0  0  0  0  0  0  0  0  0  0  0
    5.5581   -9.4895    0.0000 O   0  0  0  0  0  0  0  0  0  0  0  0
    5.5650   -6.7175    0.0000 O   0  0  0  0  0  0  0  0  0  0  0  0
    4.3595   -8.7935    0.0000 O   0  0  0  0  0  0  0  0  0  0  0  0
    6.7653   -6.7205    0.0000 O   0  0  0  0  0  0  0  0  0  0  0  0
    5.2327   -4.9161    0.0000 C   0  0  1  0  0  0  0  0  0  0  0  0
    4.5397   -4.9128    0.0000 C   0  0  1  0  0  0  0  0  0  0  0  0
    4.1903   -5.5113    0.0000 C   0  0  2  0  0  0  0  0  0  0  0  0
    4.5339   -6.1131    0.0000 C   0  0  2  0  0  0  0  0  0  0  0  0
    5.2269   -6.1164    0.0000 C   0  0  1  0  0  0  0  0  0  0  0  0
    5.5763   -5.5179    0.0000 O   0  0  0  0  0  0  0  0  0  0  0  0
    4.1960   -4.3110    0.0000 O   0  0  0  0  0  0  0  0  0  0  0  0
    5.5820   -4.3176    0.0000 C   0  0  0  0  0  0  0  0  0  0  0  0
    3.4973   -5.5080    0.0000 O   0  0  0  0  0  0  0  0  0  0  0  0
    4.1846   -6.7116    0.0000 O   0  0  0  0  0  0  0  0  0  0  0  0
    1.7113   -5.8486    0.0000 C   0  0  0  0  0  0  0  0  0  0  0  0
    1.7087   -6.5416    0.0000 C   0  0  2  0  0  0  0  0  0  0  0  0
    2.3075   -6.8904    0.0000 C   0  0  1  0  0  0  0  0  0  0  0  0
    2.9090   -6.5462    0.0000 C   0  0  2  0  0  0  0  0  0  0  0  0
    2.9116   -5.8532    0.0000 C   0  0  1  0  0  0  0  0  0  0  0  0
    2.3128   -5.5044    0.0000 O   0  0  0  0  0  0  0  0  0  0  0  0
    2.3048   -7.5834    0.0000 O   0  0  0  0  0  0  0  0  0  0  0  0
    1.1072   -6.8858    0.0000 O   0  0  0  0  0  0  0  0  0  0  0  0
    3.5078   -6.8950    0.0000 O   0  0  0  0  0  0  0  0  0  0  0  0
  1  2  1  0  0  0  0
  2  3  1  0  0  0  0
  1  4  1  0  0  0  0
  4  5  1  6  0  0  0
  4  6  1  1  0  0  0
  4  7  1  0  0  0  0
  7  8  1  6  0  0  0
  7  9  1  0  0  0  0
  9 10  1  0  0  0  0
 10 11  1  0  0  0  0
 11 12  1  1  0  0  0
 11 13  1  0  0  0  0
 13 14  1  6  0  0  0
 13 15  1  0  0  0  0
 15 16  1  0  0  0  0
 16 17  1  0  0  0  0
 17 18  1  1  0  0  0
 17 19  1  0  0  0  0
 19 20  1  0  0  0  0
 20 21  1  0  0  0  0
 21 22  1  6  0  0  0
 21 23  1  0  0  0  0
 23 24  1  1  0  0  0
 23 25  1  0  0  0  0
 25 26  1  1  0  0  0
 17 25  1  0  0  0  0
 25 27  1  0  0  0  0
 13 27  1  0  0  0  0
 27 28  2  0  0  0  0
 28 29  1  0  0  0  0
 29 30  1  0  0  0  0
 11 30  1  0  0  0  0
 30 31  1  0  0  0  0
  3 31  1  0  0  0  0
  7 31  1  0  0  0  0
 31 32  1  1  0  0  0
 18 33  2  0  0  0  0
 18 34  1  0  0  0  0
  5 35  1  0  0  0  0
  1 36  1  1  0  0  0
  2 37  1  6  0  0  0
 30 38  1  6  0  0  0
 39 40  1  0  0  0  0
 40 41  1  0  0  0  0
 41 42  1  0  0  0  0
 42 43  1  0  0  0  0
 43 44  1  0  0  0  0
 44 39  1  0  0  0  0
 39 45  1  1  0  0  0
 41 46  1  1  0  0  0
 40 47  1  6  0  0  0
 42 48  1  6  0  0  0
 49 50  1  0  0  0  0
 50 51  1  0  0  0  0
 51 52  1  0  0  0  0
 52 53  1  0  0  0  0
 53 54  1  0  0  0  0
 54 49  1  0  0  0  0
 49 55  1  1  0  0  0
 51 56  1  1  0  0  0
 53 57  1  1  0  0  0
 50 58  1  6  0  0  0
 52 59  1  6  0  0  0
 55 60  1  0  0  0  0
 61 62  1  0  0  0  0
 62 63  1  0  0  0  0
 63 64  1  0  0  0  0
 64 65  1  0  0  0  0
 65 66  1  0  0  0  0
 66 61  1  0  0  0  0
 62 67  1  1  0  0  0
 61 68  1  6  0  0  0
 63 69  1  6  0  0  0
 64 70  1  6  0  0  0
 71 72  1  0  0  0  0
 72 73  1  0  0  0  0
 73 74  1  0  0  0  0
 74 75  1  0  0  0  0
 75 76  1  0  0  0  0
 76 71  1  0  0  0  0
 73 77  1  1  0  0  0
 72 78  1  6  0  0  0
 74 79  1  6  0  0  0
 45 57  1  0  0  0  0
 65 58  1  1  0  0  0
 75 69  1  1  0  0  0
 43 36  1  1  0  0  0
M  END
>  <cdx:fragmentId>
417

$$$$
