99706.cdx
  Mrv1902 05222410222D          

 29 32  0  0  0  0            999 V2000
    6.2062   -5.7888    0.0000 C   0  0  0  0  0  0  0  0  0  0  0  0
    6.2062   -6.6137    0.0000 C   0  0  0  0  0  0  0  0  0  0  0  0
    6.9206   -7.0263    0.0000 C   0  0  0  0  0  0  0  0  0  0  0  0
    7.6351   -6.6137    0.0000 C   0  0  0  0  0  0  0  0  0  0  0  0
    7.6351   -5.7888    0.0000 C   0  0  0  0  0  0  0  0  0  0  0  0
    6.9206   -5.3763    0.0000 C   0  0  0  0  0  0  0  0  0  0  0  0
    8.3496   -7.0263    0.0000 C   0  0  0  0  0  0  0  0  0  0  0  0
    9.0641   -6.6137    0.0000 C   0  0  0  0  0  0  0  0  0  0  0  0
    9.0641   -5.7888    0.0000 C   0  0  0  0  0  0  0  0  0  0  0  0
    8.3496   -5.3763    0.0000 O   0  0  0  0  0  0  0  0  0  0  0  0
    9.7785   -7.0263    0.0000 C   0  0  0  0  0  0  0  0  0  0  0  0
   10.4930   -6.6137    0.0000 C   0  0  0  0  0  0  0  0  0  0  0  0
   10.4930   -5.7888    0.0000 C   0  0  0  0  0  0  0  0  0  0  0  0
    9.7785   -5.3763    0.0000 C   0  0  0  0  0  0  0  0  0  0  0  0
    5.5931   -7.1658    0.0000 C   0  0  0  0  0  0  0  0  0  0  0  0
    5.9286   -7.9195    0.0000 C   0  0  2  0  0  0  0  0  0  0  0  0
    6.7491   -7.8332    0.0000 O   0  0  0  0  0  0  0  0  0  0  0  0
    5.1082   -8.0057    0.0000 O   0  0  0  0  0  0  0  0  0  0  0  0
    4.9366   -8.8127    0.0000 C   0  0  1  0  0  0  0  0  0  0  0  0
    5.6511   -9.2252    0.0000 C   0  0  2  0  0  0  0  0  0  0  0  0
    6.2642   -8.6731    0.0000 C   0  0  2  0  0  0  0  0  0  0  0  0
    4.1830   -9.1482    0.0000 C   0  0  0  0  0  0  0  0  0  0  0  0
    4.1830   -9.9732    0.0000 O   0  0  0  0  0  0  0  0  0  0  0  0
    5.4917   -5.3763    0.0000 O   0  0  0  0  0  0  0  0  0  0  0  0
    4.7772   -5.7888    0.0000 C   0  0  0  0  0  0  0  0  0  0  0  0
    8.3496   -7.8513    0.0000 O   0  0  0  0  0  0  0  0  0  0  0  0
   11.2075   -5.3762    0.0000 O   0  0  0  0  0  0  0  0  0  0  0  0
    7.0712   -8.8447    0.0000 O   0  0  0  0  0  0  0  0  0  0  0  0
    5.7373  -10.0456    0.0000 O   0  0  0  0  0  0  0  0  0  0  0  0
  1  2  2  0  0  0  0
  2  3  1  0  0  0  0
  3  4  2  0  0  0  0
  4  5  1  0  0  0  0
  5  6  2  0  0  0  0
  6  1  1  0  0  0  0
  4  7  1  0  0  0  0
  7  8  1  0  0  0  0
  8  9  2  0  0  0  0
 10  5  1  0  0  0  0
  8 11  1  0  0  0  0
 11 12  2  0  0  0  0
 12 13  1  0  0  0  0
 13 14  2  0  0  0  0
 14  9  1  0  0  0  0
  2 15  1  0  0  0  0
 16 15  1  1  0  0  0
 16 17  1  0  0  0  0
 17  3  1  0  0  0  0
 16 18  1  0  0  0  0
 18 19  1  0  0  0  0
 19 20  1  0  0  0  0
 20 21  1  0  0  0  0
 21 16  1  0  0  0  0
 19 22  1  1  0  0  0
 22 23  1  0  0  0  0
  1 24  1  0  0  0  0
 24 25  1  0  0  0  0
  7 26  2  0  0  0  0
 13 27  1  0  0  0  0
 21 28  1  1  0  0  0
 20 29  1  6  0  0  0
M  END
>  <cdx:fragmentId>
5

$$$$
