99719.cdx
  Mrv1902 05222410252D          

 20 22  0  0  0  0            999 V2000
    8.7748   -9.8529    0.0000 O   0  0  0  0  0  0  0  0  0  0  0  0
    7.3444  -10.6754    0.0000 O   0  0  0  0  0  0  0  0  0  0  0  0
    6.6380   -6.1366    0.0000 C   0  0  0  0  0  0  0  0  0  0  0  0
    6.6365   -6.9616    0.0000 O   0  0  0  0  0  0  0  0  0  0  0  0
    4.4880   -9.8453    0.0000 O   0  0  0  0  0  0  0  0  0  0  0  0
    9.4944   -6.9667    0.0000 O   0  0  0  0  0  0  0  0  0  0  0  0
    8.7777   -8.2029    0.0000 C   0  0  0  0  0  0  0  0  0  0  0  0
    8.7792   -7.3779    0.0000 C   0  0  0  0  0  0  0  0  0  0  0  0
    8.0655   -6.9641    0.0000 C   0  0  0  0  0  0  0  0  0  0  0  0
    7.3503   -7.3754    0.0000 C   0  0  0  0  0  0  0  0  0  0  0  0
    5.9199   -8.1978    0.0000 C   0  0  0  0  0  0  0  0  0  0  0  0
    5.2047   -8.6090    0.0000 C   0  0  0  0  0  0  0  0  0  0  0  0
    5.2032   -9.4340    0.0000 C   0  0  0  0  0  0  0  0  0  0  0  0
    5.9169   -9.8478    0.0000 C   0  0  0  0  0  0  0  0  0  0  0  0
    8.0611   -9.4391    0.0000 C   0  0  0  0  0  0  0  0  0  0  0  0
    8.0625   -8.6141    0.0000 C   0  0  0  0  0  0  0  0  0  0  0  0
    7.3488   -8.2004    0.0000 C   0  0  0  0  0  0  0  0  0  0  0  0
    6.6336   -8.6116    0.0000 C   0  0  0  0  0  0  0  0  0  0  0  0
    6.6321   -9.4366    0.0000 C   0  0  0  0  0  0  0  0  0  0  0  0
    7.3459   -9.8504    0.0000 C   0  0  0  0  0  0  0  0  0  0  0  0
 15  1  1  0  0  0  0
 20  2  1  0  0  0  0
  4  3  1  0  0  0  0
 10  4  1  0  0  0  0
 13  5  1  0  0  0  0
  8  6  1  0  0  0  0
  7 16  1  0  0  0  0
  8  7  2  0  0  0  0
  9  8  1  0  0  0  0
 10  9  2  0  0  0  0
 17 10  1  0  0  0  0
 11 18  1  0  0  0  0
 12 11  2  0  0  0  0
 13 12  1  0  0  0  0
 14 13  2  0  0  0  0
 19 14  1  0  0  0  0
 15 20  2  0  0  0  0
 16 15  1  0  0  0  0
 17 16  2  0  0  0  0
 18 17  1  0  0  0  0
 19 18  2  0  0  0  0
 20 19  1  0  0  0  0
M  END
>  <cdx:fragmentId>
5

$$$$
