99713.cdx
  Mrv1902 05222410222D          

 87 96  0  0  0  0            999 V2000
    6.9054   -7.3221    0.0000 C   0  0  1  0  0  0  0  0  0  0  0  0
    6.9054   -6.4971    0.0000 C   0  0  0  0  0  0  0  0  0  0  0  0
    7.6198   -6.0846    0.0000 C   0  0  0  0  0  0  0  0  0  0  0  0
    7.6198   -7.7346    0.0000 C   0  0  2  0  0  0  0  0  0  0  0  0
    8.0323   -8.4491    0.0000 C   0  0  0  0  0  0  0  0  0  0  0  0
    7.2073   -8.4491    0.0000 C   0  0  0  0  0  0  0  0  0  0  0  0
    8.3343   -7.3221    0.0000 C   0  0  2  0  0  0  0  0  0  0  0  0
    8.3343   -8.1471    0.0000 H   0  0  0  0  0  0  0  0  0  0  0  0
    9.0488   -7.7346    0.0000 C   0  0  0  0  0  0  0  0  0  0  0  0
    9.7632   -7.3221    0.0000 C   0  0  0  0  0  0  0  0  0  0  0  0
    9.7632   -6.4971    0.0000 C   0  0  1  0  0  0  0  0  0  0  0  0
    9.7632   -5.6721    0.0000 C   0  0  0  0  0  0  0  0  0  0  0  0
   10.4777   -6.0846    0.0000 C   0  0  2  0  0  0  0  0  0  0  0  0
   10.4777   -6.9096    0.0000 C   0  0  0  0  0  0  0  0  0  0  0  0
   11.1922   -6.4971    0.0000 C   0  0  0  0  0  0  0  0  0  0  0  0
   11.9067   -6.0846    0.0000 C   0  0  0  0  0  0  0  0  0  0  0  0
   11.9067   -5.2596    0.0000 C   0  0  1  0  0  0  0  0  0  0  0  0
   12.6211   -5.6721    0.0000 C   0  0  0  0  0  0  0  0  0  0  0  0
   12.6211   -4.8471    0.0000 C   0  0  0  0  0  0  0  0  0  0  0  0
   12.6211   -4.0221    0.0000 C   0  0  0  0  0  0  0  0  0  0  0  0
   11.9067   -3.6096    0.0000 C   0  0  0  0  0  0  0  0  0  0  0  0
   11.9067   -2.7846    0.0000 C   0  0  0  0  0  0  0  0  0  0  0  0
   11.1922   -4.0221    0.0000 C   0  0  0  0  0  0  0  0  0  0  0  0
   11.1922   -4.8471    0.0000 C   0  0  1  0  0  0  0  0  0  0  0  0
   11.1922   -5.6721    0.0000 H   0  0  0  0  0  0  0  0  0  0  0  0
   10.4777   -5.2596    0.0000 C   0  0  0  0  0  0  0  0  0  0  0  0
    9.7632   -4.8471    0.0000 C   0  0  0  0  0  0  0  0  0  0  0  0
    9.0488   -5.2596    0.0000 C   0  0  0  0  0  0  0  0  0  0  0  0
    9.0488   -6.0846    0.0000 C   0  0  2  0  0  0  0  0  0  0  0  0
    8.3343   -6.4971    0.0000 C   0  0  1  0  0  0  0  0  0  0  0  0
    8.3343   -5.6721    0.0000 C   0  0  0  0  0  0  0  0  0  0  0  0
   12.6211   -6.4971    0.0000 O   0  0  0  0  0  0  0  0  0  0  0  0
   13.3356   -5.2596    0.0000 O   0  0  0  0  0  0  0  0  0  0  0  0
    6.1909   -7.7346    0.0000 O   0  0  0  0  0  0  0  0  0  0  0  0
    9.0488   -6.9096    0.0000 H   0  0  0  0  0  0  0  0  0  0  0  0
    4.0300   -6.4985    0.0000 C   0  0  2  0  0  0  0  0  0  0  0  0
    4.0300   -7.3235    0.0000 C   0  0  1  0  0  0  0  0  0  0  0  0
    4.7445   -7.7360    0.0000 C   0  0  2  0  0  0  0  0  0  0  0  0
    5.4590   -7.3235    0.0000 C   0  0  1  0  0  0  0  0  0  0  0  0
    5.4590   -6.4985    0.0000 O   0  0  0  0  0  0  0  0  0  0  0  0
    4.7445   -6.0860    0.0000 C   0  0  0  0  0  0  0  0  0  0  0  0
    3.3155   -6.0860    0.0000 O   0  0  0  0  0  0  0  0  0  0  0  0
    3.3155   -7.7360    0.0000 O   0  0  0  0  0  0  0  0  0  0  0  0
    4.7445   -8.5610    0.0000 O   0  0  0  0  0  0  0  0  0  0  0  0
    2.6000   -8.9597    0.0000 C   0  0  1  0  0  0  0  0  0  0  0  0
    2.6000   -9.7847    0.0000 C   0  0  1  0  0  0  0  0  0  0  0  0
    3.3145  -10.1972    0.0000 C   0  0  2  0  0  0  0  0  0  0  0  0
    4.0290   -9.7847    0.0000 C   0  0  2  0  0  0  0  0  0  0  0  0
    4.0290   -8.9597    0.0000 C   0  0  1  0  0  0  0  0  0  0  0  0
    3.3145   -8.5472    0.0000 O   0  0  0  0  0  0  0  0  0  0  0  0
    3.3145  -11.0222    0.0000 O   0  0  0  0  0  0  0  0  0  0  0  0
    1.8855  -10.1972    0.0000 O   0  0  0  0  0  0  0  0  0  0  0  0
    4.7434  -10.1972    0.0000 O   0  0  0  0  0  0  0  0  0  0  0  0
    1.8764   -6.0883    0.0000 C   0  0  2  0  0  0  0  0  0  0  0  0
    1.1621   -6.5012    0.0000 C   0  0  2  0  0  0  0  0  0  0  0  0
    1.1625   -7.3262    0.0000 C   0  0  1  0  0  0  0  0  0  0  0  0
    1.8772   -7.7383    0.0000 C   0  0  2  0  0  0  0  0  0  0  0  0
    2.5915   -7.3255    0.0000 C   0  0  1  0  0  0  0  0  0  0  0  0
    2.5911   -6.5005    0.0000 O   0  0  0  0  0  0  0  0  0  0  0  0
    1.8760   -5.2633    0.0000 C   0  0  0  0  0  0  0  0  0  0  0  0
    0.4483   -7.7391    0.0000 O   0  0  0  0  0  0  0  0  0  0  0  0
    0.4474   -6.0891    0.0000 O   0  0  0  0  0  0  0  0  0  0  0  0
    1.8776   -8.5633    0.0000 O   0  0  0  0  0  0  0  0  0  0  0  0
    1.1613   -4.8512    0.0000 O   0  0  0  0  0  0  0  0  0  0  0  0
   11.9026   -8.5732    0.0000 C   0  0  2  0  0  0  0  0  0  0  0  0
   12.6169   -8.9860    0.0000 C   0  0  2  0  0  0  0  0  0  0  0  0
   13.3315   -8.5738    0.0000 C   0  0  1  0  0  0  0  0  0  0  0  0
   13.3318   -7.7488    0.0000 C   0  0  2  0  0  0  0  0  0  0  0  0
   12.6175   -7.3360    0.0000 C   0  0  1  0  0  0  0  0  0  0  0  0
   11.9029   -7.7482    0.0000 O   0  0  0  0  0  0  0  0  0  0  0  0
   11.1879   -8.9855    0.0000 C   0  0  0  0  0  0  0  0  0  0  0  0
   14.0458   -8.9866    0.0000 O   0  0  0  0  0  0  0  0  0  0  0  0
   12.6166   -9.8110    0.0000 O   0  0  0  0  0  0  0  0  0  0  0  0
   14.0465   -7.3366    0.0000 O   0  0  0  0  0  0  0  0  0  0  0  0
   11.1876   -9.8105    0.0000 O   0  0  0  0  0  0  0  0  0  0  0  0
    9.0367  -10.2132    0.0000 C   0  0  2  0  0  0  0  0  0  0  0  0
    9.0359  -11.0382    0.0000 C   0  0  2  0  0  0  0  0  0  0  0  0
    9.7500  -11.4514    0.0000 C   0  0  1  0  0  0  0  0  0  0  0  0
   10.4648  -11.0396    0.0000 C   0  0  2  0  0  0  0  0  0  0  0  0
   10.4656  -10.2146    0.0000 C   0  0  1  0  0  0  0  0  0  0  0  0
    9.7515   -9.8014    0.0000 O   0  0  0  0  0  0  0  0  0  0  0  0
    8.3226   -9.8000    0.0000 C   0  0  0  0  0  0  0  0  0  0  0  0
    9.7492  -12.2764    0.0000 O   0  0  0  0  0  0  0  0  0  0  0  0
    8.3210  -11.4500    0.0000 O   0  0  0  0  0  0  0  0  0  0  0  0
   11.1789  -11.4527    0.0000 O   0  0  0  0  0  0  0  0  0  0  0  0
    7.6077  -10.2119    0.0000 O   0  0  0  0  0  0  0  0  0  0  0  0
    1.7750   -8.9597    0.0000 C   0  0  0  0  0  0  0  0  0  0  0  0
  1  2  1  0  0  0  0
  2  3  1  0  0  0  0
  1  4  1  0  0  0  0
  4  5  1  6  0  0  0
  4  6  1  1  0  0  0
  4  7  1  0  0  0  0
  7  8  1  6  0  0  0
  7  9  1  0  0  0  0
  9 10  1  0  0  0  0
 10 11  1  0  0  0  0
 11 12  1  1  0  0  0
 11 13  1  0  0  0  0
 13 14  1  6  0  0  0
 13 15  1  0  0  0  0
 15 16  1  0  0  0  0
 16 17  1  0  0  0  0
 17 18  1  1  0  0  0
 17 19  1  0  0  0  0
 19 20  1  0  0  0  0
 20 21  1  0  0  0  0
 21 22  2  0  0  0  0
 21 23  1  0  0  0  0
 23 24  1  0  0  0  0
 24 25  1  1  0  0  0
 17 24  1  0  0  0  0
 24 26  1  0  0  0  0
 13 26  1  0  0  0  0
 26 27  2  0  0  0  0
 27 28  1  0  0  0  0
 28 29  1  0  0  0  0
 11 29  1  0  0  0  0
 29 30  1  0  0  0  0
  3 30  1  0  0  0  0
  7 30  1  0  0  0  0
 30 31  1  1  0  0  0
 18 32  1  0  0  0  0
 18 33  2  0  0  0  0
  1 34  1  1  0  0  0
 29 35  1  6  0  0  0
 36 37  1  0  0  0  0
 37 38  1  0  0  0  0
 38 39  1  0  0  0  0
 39 40  1  0  0  0  0
 40 41  1  0  0  0  0
 41 36  1  0  0  0  0
 36 42  1  1  0  0  0
 37 43  1  1  0  0  0
 38 44  1  6  0  0  0
 45 46  1  0  0  0  0
 46 47  1  0  0  0  0
 47 48  1  0  0  0  0
 48 49  1  0  0  0  0
 49 50  1  0  0  0  0
 50 45  1  0  0  0  0
 47 51  1  6  0  0  0
 46 52  1  1  0  0  0
 48 53  1  6  0  0  0
 54 55  1  0  0  0  0
 55 56  1  0  0  0  0
 56 57  1  0  0  0  0
 57 58  1  0  0  0  0
 58 59  1  0  0  0  0
 59 54  1  0  0  0  0
 54 60  1  1  0  0  0
 56 61  1  1  0  0  0
 55 62  1  6  0  0  0
 57 63  1  6  0  0  0
 60 64  1  0  0  0  0
 58 43  1  1  0  0  0
 49 44  1  1  0  0  0
 39 34  1  1  0  0  0
 65 66  1  0  0  0  0
 66 67  1  0  0  0  0
 67 68  1  0  0  0  0
 68 69  1  0  0  0  0
 69 70  1  0  0  0  0
 70 65  1  0  0  0  0
 65 71  1  1  0  0  0
 67 72  1  1  0  0  0
 66 73  1  6  0  0  0
 68 74  1  6  0  0  0
 71 75  1  0  0  0  0
 76 77  1  0  0  0  0
 77 78  1  0  0  0  0
 78 79  1  0  0  0  0
 79 80  1  0  0  0  0
 80 81  1  0  0  0  0
 81 76  1  0  0  0  0
 76 82  1  1  0  0  0
 78 83  1  1  0  0  0
 77 84  1  6  0  0  0
 79 85  1  6  0  0  0
 82 86  1  0  0  0  0
 80 75  1  1  0  0  0
 69 32  1  1  0  0  0
 45 87  1  6  0  0  0
M  END
>  <cdx:fragmentId>
5

$$$$
