99716.cdx
  Mrv1902 05222410212D          

 54 59  0  0  0  0            999 V2000
    5.8182   -7.2272    0.0000 O   0  0  0  0  0  0  0  0  0  0  0  0
    2.9603   -8.0522    0.0000 O   0  0  0  0  0  0  0  0  0  0  0  0
    1.5314   -5.5772    0.0000 O   0  0  0  0  0  0  0  0  0  0  0  0
    8.6761   -4.7522    0.0000 C   0  0  0  0  0  0  0  0  0  0  0  0
    7.9616   -4.3397    0.0000 O   0  0  0  0  0  0  0  0  0  0  0  0
    5.8182   -4.7522    0.0000 C   0  0  0  0  0  0  0  0  0  0  0  0
    6.5327   -4.3397    0.0000 C   0  0  0  0  0  0  0  0  0  0  0  0
    7.2471   -4.7522    0.0000 C   0  0  0  0  0  0  0  0  0  0  0  0
    7.2471   -5.5772    0.0000 C   0  0  0  0  0  0  0  0  0  0  0  0
    6.5327   -5.9897    0.0000 C   0  0  0  0  0  0  0  0  0  0  0  0
    5.8182   -5.5772    0.0000 C   0  0  0  0  0  0  0  0  0  0  0  0
    4.3893   -8.0522    0.0000 O   0  0  0  0  0  0  0  0  0  0  0  0
    4.3893   -5.5772    0.0000 O   0  0  0  0  0  0  0  0  0  0  0  0
    3.6748   -5.9897    0.0000 C   0  0  0  0  0  0  0  0  0  0  0  0
    2.9603   -5.5772    0.0000 C   0  0  0  0  0  0  0  0  0  0  0  0
    2.2459   -5.9897    0.0000 C   0  0  0  0  0  0  0  0  0  0  0  0
    2.2459   -6.8147    0.0000 C   0  0  0  0  0  0  0  0  0  0  0  0
    2.9603   -7.2272    0.0000 C   0  0  0  0  0  0  0  0  0  0  0  0
    3.6748   -6.8147    0.0000 C   0  0  0  0  0  0  0  0  0  0  0  0
    4.3893   -7.2272    0.0000 C   0  0  0  0  0  0  0  0  0  0  0  0
    5.1037   -6.8147    0.0000 C   0  0  0  0  0  0  0  0  0  0  0  0
    5.1037   -5.9897    0.0000 C   0  0  0  0  0  0  0  0  0  0  0  0
    5.1008   -9.3028    0.0000 C   0  0  1  0  0  0  0  0  0  0  0  0
    5.8166   -9.7129    0.0000 C   0  0  1  0  0  0  0  0  0  0  0  0
    6.5297   -9.2980    0.0000 C   0  0  2  0  0  0  0  0  0  0  0  0
    6.5269   -8.4730    0.0000 C   0  0  2  0  0  0  0  0  0  0  0  0
    5.8110   -8.0629    0.0000 C   0  0  1  0  0  0  0  0  0  0  0  0
    5.0980   -8.4778    0.0000 O   0  0  0  0  0  0  0  0  0  0  0  0
    5.8194  -10.5379    0.0000 O   0  0  0  0  0  0  0  0  0  0  0  0
    4.3877   -9.7177    0.0000 C   0  0  0  0  0  0  0  0  0  0  0  0
    7.2455   -9.7081    0.0000 O   0  0  0  0  0  0  0  0  0  0  0  0
    7.2400   -8.0581    0.0000 O   0  0  0  0  0  0  0  0  0  0  0  0
    8.6727   -9.7224    0.0000 C   0  0  2  0  0  0  0  0  0  0  0  0
    9.3883   -9.3119    0.0000 C   0  0  2  0  0  0  0  0  0  0  0  0
    9.3905   -8.4869    0.0000 C   0  0  1  0  0  0  0  0  0  0  0  0
    8.6772   -8.0725    0.0000 C   0  0  2  0  0  0  0  0  0  0  0  0
    7.9616   -8.4830    0.0000 C   0  0  1  0  0  0  0  0  0  0  0  0
    7.9593   -9.3080    0.0000 O   0  0  0  0  0  0  0  0  0  0  0  0
    8.6705  -10.5474    0.0000 C   0  0  0  0  0  0  0  0  0  0  0  0
   10.1061   -8.0763    0.0000 O   0  0  0  0  0  0  0  0  0  0  0  0
   10.1016   -9.7263    0.0000 O   0  0  0  0  0  0  0  0  0  0  0  0
    8.6794   -7.2475    0.0000 O   0  0  0  0  0  0  0  0  0  0  0  0
    9.3838  -10.9619    0.0000 O   0  0  0  0  0  0  0  0  0  0  0  0
   12.2330  -14.2704    0.0000 C   0  0  0  0  0  0  0  0  0  0  0  0
   12.2337  -13.4454    0.0000 C   0  0  0  0  0  0  0  0  0  0  0  0
   11.5196  -13.0323    0.0000 C   0  0  0  0  0  0  0  0  0  0  0  0
   10.8048  -13.4442    0.0000 C   0  0  0  0  0  0  0  0  0  0  0  0
   10.8040  -14.2692    0.0000 C   0  0  0  0  0  0  0  0  0  0  0  0
   11.5182  -14.6823    0.0000 C   0  0  0  0  0  0  0  0  0  0  0  0
   12.9471  -14.6835    0.0000 O   0  0  0  0  0  0  0  0  0  0  0  0
   10.0906  -13.0311    0.0000 C   0  0  0  0  0  0  0  0  0  0  0  0
   10.0913  -12.2061    0.0000 C   0  0  0  0  0  0  0  0  0  0  0  0
    9.3772  -11.7930    0.0000 C   0  0  0  0  0  0  0  0  0  0  0  0
    8.6624  -12.2049    0.0000 O   0  0  0  0  0  0  0  0  0  0  0  0
 21  1  1  0  0  0  0
 18  2  1  0  0  0  0
 16  3  1  0  0  0  0
 22 11  1  0  0  0  0
  8  5  1  0  0  0  0
  5  4  1  0  0  0  0
 11  6  2  0  0  0  0
  7  6  1  0  0  0  0
  8  7  2  0  0  0  0
  9  8  1  0  0  0  0
 10  9  2  0  0  0  0
 11 10  1  0  0  0  0
 20 12  2  0  0  0  0
 22 13  1  0  0  0  0
 14 13  1  0  0  0  0
 19 14  2  0  0  0  0
 15 14  1  0  0  0  0
 16 15  2  0  0  0  0
 17 16  1  0  0  0  0
 18 17  2  0  0  0  0
 19 18  1  0  0  0  0
 20 19  1  0  0  0  0
 21 20  1  0  0  0  0
 22 21  2  0  0  0  0
 23 24  1  0  0  0  0
 24 25  1  0  0  0  0
 25 26  1  0  0  0  0
 26 27  1  0  0  0  0
 27 28  1  0  0  0  0
 28 23  1  0  0  0  0
 24 29  1  1  0  0  0
 23 30  1  6  0  0  0
 25 31  1  6  0  0  0
 26 32  1  6  0  0  0
 27  1  1  1  0  0  0
 33 34  1  0  0  0  0
 34 35  1  0  0  0  0
 35 36  1  0  0  0  0
 36 37  1  0  0  0  0
 37 38  1  0  0  0  0
 38 33  1  0  0  0  0
 33 39  1  1  0  0  0
 35 40  1  1  0  0  0
 34 41  1  6  0  0  0
 36 42  1  6  0  0  0
 39 43  1  0  0  0  0
 37 32  1  1  0  0  0
 44 45  2  0  0  0  0
 45 46  1  0  0  0  0
 46 47  2  0  0  0  0
 47 48  1  0  0  0  0
 48 49  2  0  0  0  0
 49 44  1  0  0  0  0
 44 50  1  0  0  0  0
 47 51  1  0  0  0  0
 51 52  2  0  0  0  0
 52 53  1  0  0  0  0
 53 54  2  0  0  0  0
 53 43  1  0  0  0  0
M  END
>  <cdx:fragmentId>
5

$$$$
