997105.cdx
  Mrv1902 05222410242D          

 10  9  0  0  0  0            999 V2000
    4.4094   -5.8654    0.0000 C   0  0  0  0  0  0  0  0  0  0  0  0
    5.1156   -5.4389    0.0000 C   0  0  0  0  0  0  0  0  0  0  0  0
    5.8381   -5.8372    0.0000 C   0  0  1  0  0  0  0  0  0  0  0  0
    6.5443   -5.4106    0.0000 C   0  0  0  0  0  0  0  0  0  0  0  0
    7.2667   -5.8089    0.0000 C   0  0  0  0  0  0  0  0  0  0  0  0
    7.9729   -5.3824    0.0000 C   0  0  0  0  0  0  0  0  0  0  0  0
    8.6954   -5.7807    0.0000 C   0  0  0  0  0  0  0  0  0  0  0  0
    9.4016   -5.3541    0.0000 C   0  0  0  0  0  0  0  0  0  0  0  0
    8.7117   -6.6055    0.0000 C   0  0  0  0  0  0  0  0  0  0  0  0
    5.8544   -6.6620    0.0000 C   0  0  0  0  0  0  0  0  0  0  0  0
  1  2  2  0  0  0  0
  2  3  1  0  0  0  0
  3  4  1  0  0  0  0
  4  5  1  0  0  0  0
  5  6  1  0  0  0  0
  6  7  2  0  0  0  0
  7  8  1  0  0  0  0
  7  9  1  0  0  0  0
  3 10  1  1  0  0  0
M  END
>  <cdx:fragmentId>
64490

$$$$
