99715.cdx
  Mrv1902 05222410202D          

 16 16  0  0  0  0            999 V2000
    6.5743   -7.9320    0.0000 C   0  0  1  0  0  0  0  0  0  0  0  0
    6.8339   -8.7151    0.0000 C   0  0  0  0  0  0  0  0  0  0  0  0
    7.6588   -8.7103    0.0000 C   0  0  1  0  0  0  0  0  0  0  0  0
    7.9091   -7.9241    0.0000 C   0  0  0  0  0  0  0  0  0  0  0  0
    7.2388   -7.4432    0.0000 C   0  0  0  0  0  0  0  0  0  0  0  0
    7.2340   -6.6182    0.0000 C   0  0  0  0  0  0  0  0  0  0  0  0
    8.6922   -7.6646    0.0000 C   0  0  0  0  0  0  0  0  0  0  0  0
    8.1477   -9.3748    0.0000 O   0  0  0  0  0  0  0  0  0  0  0  0
    5.7882   -7.6817    0.0000 C   0  0  0  0  0  0  0  0  0  0  0  0
    5.1783   -8.2374    0.0000 C   0  0  0  0  0  0  0  0  0  0  0  0
    5.6119   -6.8758    0.0000 C   0  0  0  0  0  0  0  0  0  0  0  0
    4.3922   -7.9871    0.0000 O   0  0  0  0  0  0  0  0  0  0  0  0
    7.9460   -6.2015    0.0000 O   0  0  0  0  0  0  0  0  0  0  0  0
    6.5171   -6.2099    0.0000 O   0  0  0  0  0  0  0  0  0  0  0  0
    6.5171   -5.3849    0.0000 C   0  0  0  0  0  0  0  0  0  0  0  0
    7.9460   -5.3765    0.0000 C   0  0  0  0  0  0  0  0  0  0  0  0
  1  2  1  0  0  0  0
  2  3  1  0  0  0  0
  3  4  1  0  0  0  0
  4  5  2  0  0  0  0
  5  1  1  0  0  0  0
  5  6  1  0  0  0  0
  4  7  1  0  0  0  0
  3  8  1  1  0  0  0
  1  9  1  6  0  0  0
  9 10  1  0  0  0  0
  9 11  2  0  0  0  0
 10 12  2  0  0  0  0
  6 13  1  0  0  0  0
  6 14  1  0  0  0  0
 14 15  1  0  0  0  0
 13 16  1  0  0  0  0
M  END
>  <cdx:fragmentId>
5

$$$$
