99711.cdx
  Mrv1902 05222410232D          

 85 94  0  0  0  0            999 V2000
    6.0896   -7.1984    0.0000 C   0  0  1  0  0  0  0  0  0  0  0  0
    6.0896   -6.3734    0.0000 C   0  0  0  0  0  0  0  0  0  0  0  0
    6.8041   -5.9609    0.0000 C   0  0  0  0  0  0  0  0  0  0  0  0
    6.8041   -7.6109    0.0000 C   0  0  2  0  0  0  0  0  0  0  0  0
    7.2166   -8.3254    0.0000 C   0  0  0  0  0  0  0  0  0  0  0  0
    6.3916   -8.3254    0.0000 C   0  0  0  0  0  0  0  0  0  0  0  0
    7.5186   -7.1984    0.0000 C   0  0  2  0  0  0  0  0  0  0  0  0
    7.5186   -8.0234    0.0000 H   0  0  0  0  0  0  0  0  0  0  0  0
    8.2330   -7.6109    0.0000 C   0  0  0  0  0  0  0  0  0  0  0  0
    8.9475   -7.1984    0.0000 C   0  0  0  0  0  0  0  0  0  0  0  0
    8.9475   -6.3734    0.0000 C   0  0  1  0  0  0  0  0  0  0  0  0
    8.9475   -5.5484    0.0000 C   0  0  0  0  0  0  0  0  0  0  0  0
    9.6620   -5.9609    0.0000 C   0  0  2  0  0  0  0  0  0  0  0  0
    9.6620   -6.7859    0.0000 C   0  0  0  0  0  0  0  0  0  0  0  0
   10.3765   -6.3734    0.0000 C   0  0  0  0  0  0  0  0  0  0  0  0
   11.0909   -5.9609    0.0000 C   0  0  0  0  0  0  0  0  0  0  0  0
   11.0909   -5.1359    0.0000 C   0  0  1  0  0  0  0  0  0  0  0  0
   11.8054   -5.5484    0.0000 C   0  0  0  0  0  0  0  0  0  0  0  0
   11.8054   -4.7234    0.0000 C   0  0  0  0  0  0  0  0  0  0  0  0
   11.8054   -3.8984    0.0000 C   0  0  0  0  0  0  0  0  0  0  0  0
   11.0909   -3.4859    0.0000 C   0  0  1  0  0  0  0  0  0  0  0  0
   11.0909   -2.6609    0.0000 C   0  0  0  0  0  0  0  0  0  0  0  0
   10.3765   -3.8984    0.0000 C   0  0  0  0  0  0  0  0  0  0  0  0
   10.3765   -4.7234    0.0000 C   0  0  1  0  0  0  0  0  0  0  0  0
   10.3765   -5.5484    0.0000 H   0  0  0  0  0  0  0  0  0  0  0  0
    9.6620   -5.1359    0.0000 C   0  0  0  0  0  0  0  0  0  0  0  0
    8.9475   -4.7234    0.0000 C   0  0  0  0  0  0  0  0  0  0  0  0
    8.2330   -5.1359    0.0000 C   0  0  0  0  0  0  0  0  0  0  0  0
    8.2330   -5.9609    0.0000 C   0  0  2  0  0  0  0  0  0  0  0  0
    7.5186   -6.3734    0.0000 C   0  0  1  0  0  0  0  0  0  0  0  0
    7.5186   -5.5484    0.0000 C   0  0  0  0  0  0  0  0  0  0  0  0
   11.8054   -6.3734    0.0000 O   0  0  0  0  0  0  0  0  0  0  0  0
   12.5199   -5.1359    0.0000 O   0  0  0  0  0  0  0  0  0  0  0  0
    8.2330   -6.7859    0.0000 H   0  0  0  0  0  0  0  0  0  0  0  0
    3.2224   -6.3747    0.0000 C   0  0  2  0  0  0  0  0  0  0  0  0
    3.2224   -7.1997    0.0000 C   0  0  1  0  0  0  0  0  0  0  0  0
    3.9369   -7.6122    0.0000 C   0  0  2  0  0  0  0  0  0  0  0  0
    4.6514   -7.1997    0.0000 C   0  0  1  0  0  0  0  0  0  0  0  0
    4.6514   -6.3747    0.0000 O   0  0  0  0  0  0  0  0  0  0  0  0
    3.9369   -5.9622    0.0000 C   0  0  0  0  0  0  0  0  0  0  0  0
    2.5080   -5.9622    0.0000 O   0  0  0  0  0  0  0  0  0  0  0  0
    2.5080   -7.6122    0.0000 O   0  0  0  0  0  0  0  0  0  0  0  0
    5.3658   -7.6122    0.0000 O   0  0  0  0  0  0  0  0  0  0  0  0
    3.9369   -8.4372    0.0000 O   0  0  0  0  0  0  0  0  0  0  0  0
    1.7787   -8.8635    0.0000 C   0  0  0  0  0  0  0  0  0  0  0  0
    1.7787   -9.6885    0.0000 C   0  0  2  0  0  0  0  0  0  0  0  0
    2.4931  -10.1010    0.0000 C   0  0  1  0  0  0  0  0  0  0  0  0
    3.2076   -9.6885    0.0000 C   0  0  2  0  0  0  0  0  0  0  0  0
    3.2076   -8.8635    0.0000 C   0  0  1  0  0  0  0  0  0  0  0  0
    2.4931   -8.4510    0.0000 O   0  0  0  0  0  0  0  0  0  0  0  0
    2.4931  -10.9260    0.0000 O   0  0  0  0  0  0  0  0  0  0  0  0
    1.0642  -10.1010    0.0000 O   0  0  0  0  0  0  0  0  0  0  0  0
    3.9221  -10.1010    0.0000 O   0  0  0  0  0  0  0  0  0  0  0  0
   11.0614   -8.4495    0.0000 C   0  0  2  0  0  0  0  0  0  0  0  0
   11.7743   -8.8647    0.0000 C   0  0  2  0  0  0  0  0  0  0  0  0
   12.4904   -8.4550    0.0000 C   0  0  1  0  0  0  0  0  0  0  0  0
   12.4935   -7.6300    0.0000 C   0  0  2  0  0  0  0  0  0  0  0  0
   11.7806   -7.2147    0.0000 C   0  0  1  0  0  0  0  0  0  0  0  0
   11.0646   -7.6245    0.0000 O   0  0  0  0  0  0  0  0  0  0  0  0
   10.3454   -8.8592    0.0000 C   0  0  0  0  0  0  0  0  0  0  0  0
   13.2032   -8.8702    0.0000 O   0  0  0  0  0  0  0  0  0  0  0  0
   11.7711   -9.6897    0.0000 O   0  0  0  0  0  0  0  0  0  0  0  0
   13.2096   -7.2202    0.0000 O   0  0  0  0  0  0  0  0  0  0  0  0
   10.3422   -9.6842    0.0000 O   0  0  0  0  0  0  0  0  0  0  0  0
    8.2131  -10.0936    0.0000 C   0  0  2  0  0  0  0  0  0  0  0  0
    8.2100  -10.9186    0.0000 C   0  0  2  0  0  0  0  0  0  0  0  0
    8.9229  -11.3338    0.0000 C   0  0  1  0  0  0  0  0  0  0  0  0
    9.6390  -10.9240    0.0000 C   0  0  2  0  0  0  0  0  0  0  0  0
    9.6421  -10.0990    0.0000 C   0  0  1  0  0  0  0  0  0  0  0  0
    8.9291   -9.6838    0.0000 O   0  0  0  0  0  0  0  0  0  0  0  0
    7.5002   -9.6784    0.0000 C   0  0  0  0  0  0  0  0  0  0  0  0
    8.9198  -12.1588    0.0000 O   0  0  0  0  0  0  0  0  0  0  0  0
    7.4940  -11.3284    0.0000 O   0  0  0  0  0  0  0  0  0  0  0  0
   10.3519  -11.3392    0.0000 O   0  0  0  0  0  0  0  0  0  0  0  0
    6.7842  -10.0883    0.0000 O   0  0  0  0  0  0  0  0  0  0  0  0
    5.8308  -12.7560    0.0000 C   0  0  1  0  0  0  0  0  0  0  0  0
    6.2385  -13.4732    0.0000 C   0  0  1  0  0  0  0  0  0  0  0  0
    7.0635  -13.4787    0.0000 C   0  0  2  0  0  0  0  0  0  0  0  0
    7.4807  -12.7671    0.0000 C   0  0  2  0  0  0  0  0  0  0  0  0
    7.0731  -12.0498    0.0000 C   0  0  1  0  0  0  0  0  0  0  0  0
    6.2481  -12.0443    0.0000 O   0  0  0  0  0  0  0  0  0  0  0  0
    5.8212  -14.1849    0.0000 O   0  0  0  0  0  0  0  0  0  0  0  0
    5.0058  -12.7505    0.0000 C   0  0  0  0  0  0  0  0  0  0  0  0
    7.4712  -14.1960    0.0000 O   0  0  0  0  0  0  0  0  0  0  0  0
    8.3057  -12.7726    0.0000 O   0  0  0  0  0  0  0  0  0  0  0  0
  1  2  1  0  0  0  0
  2  3  1  0  0  0  0
  1  4  1  0  0  0  0
  4  5  1  6  0  0  0
  4  6  1  1  0  0  0
  4  7  1  0  0  0  0
  7  8  1  6  0  0  0
  7  9  1  0  0  0  0
  9 10  1  0  0  0  0
 10 11  1  0  0  0  0
 11 12  1  1  0  0  0
 11 13  1  0  0  0  0
 13 14  1  6  0  0  0
 13 15  1  0  0  0  0
 15 16  1  0  0  0  0
 16 17  1  0  0  0  0
 17 18  1  1  0  0  0
 17 19  1  0  0  0  0
 19 20  1  0  0  0  0
 20 21  1  0  0  0  0
 21 22  1  6  0  0  0
 21 23  1  0  0  0  0
 23 24  1  0  0  0  0
 24 25  1  1  0  0  0
 17 24  1  0  0  0  0
 24 26  1  0  0  0  0
 13 26  1  0  0  0  0
 26 27  2  0  0  0  0
 27 28  1  0  0  0  0
 28 29  1  0  0  0  0
 11 29  1  0  0  0  0
 29 30  1  0  0  0  0
  3 30  1  0  0  0  0
  7 30  1  0  0  0  0
 30 31  1  1  0  0  0
 18 32  1  0  0  0  0
 18 33  2  0  0  0  0
 29 34  1  6  0  0  0
 35 36  1  0  0  0  0
 36 37  1  0  0  0  0
 37 38  1  0  0  0  0
 38 39  1  0  0  0  0
 39 40  1  0  0  0  0
 40 35  1  0  0  0  0
 35 41  1  1  0  0  0
 36 42  1  1  0  0  0
 38 43  1  1  0  0  0
 37 44  1  6  0  0  0
 45 46  1  0  0  0  0
 46 47  1  0  0  0  0
 47 48  1  0  0  0  0
 48 49  1  0  0  0  0
 49 50  1  0  0  0  0
 50 45  1  0  0  0  0
 47 51  1  1  0  0  0
 46 52  1  6  0  0  0
 48 53  1  6  0  0  0
 49 44  1  1  0  0  0
  1 43  1  1  0  0  0
 54 55  1  0  0  0  0
 55 56  1  0  0  0  0
 56 57  1  0  0  0  0
 57 58  1  0  0  0  0
 58 59  1  0  0  0  0
 59 54  1  0  0  0  0
 54 60  1  1  0  0  0
 56 61  1  1  0  0  0
 55 62  1  6  0  0  0
 57 63  1  6  0  0  0
 60 64  1  0  0  0  0
 65 66  1  0  0  0  0
 66 67  1  0  0  0  0
 67 68  1  0  0  0  0
 68 69  1  0  0  0  0
 69 70  1  0  0  0  0
 70 65  1  0  0  0  0
 65 71  1  1  0  0  0
 67 72  1  1  0  0  0
 66 73  1  6  0  0  0
 68 74  1  6  0  0  0
 71 75  1  0  0  0  0
 76 77  1  0  0  0  0
 77 78  1  0  0  0  0
 78 79  1  0  0  0  0
 79 80  1  0  0  0  0
 80 81  1  0  0  0  0
 81 76  1  0  0  0  0
 77 82  1  1  0  0  0
 76 83  1  6  0  0  0
 78 84  1  6  0  0  0
 79 85  1  6  0  0  0
 69 64  1  1  0  0  0
 80 73  1  1  0  0  0
 58 32  1  1  0  0  0
M  END
>  <cdx:fragmentId>
5

$$$$
