99717.cdx
  Mrv1902 05222410212D          

 24 25  0  0  0  0            999 V2000
   10.8661   -9.6805    0.0000 C   0  0  0  0  0  0  0  0  0  0  0  0
   10.1516   -9.2680    0.0000 C   0  0  0  0  0  0  0  0  0  0  0  0
    9.4372   -9.6805    0.0000 C   0  0  0  0  0  0  0  0  0  0  0  0
    8.7227   -9.2680    0.0000 C   0  0  0  0  0  0  0  0  0  0  0  0
   10.1516   -8.4430    0.0000 O   0  0  0  0  0  0  0  0  0  0  0  0
    8.0082   -9.6805    0.0000 C   0  0  0  0  0  0  0  0  0  0  0  0
    7.2938   -9.2680    0.0000 C   0  0  0  0  0  0  0  0  0  0  0  0
    6.5793   -9.6805    0.0000 C   0  0  0  0  0  0  0  0  0  0  0  0
    6.5793  -10.5055    0.0000 C   0  0  0  0  0  0  0  0  0  0  0  0
    7.2938  -10.9180    0.0000 C   0  0  0  0  0  0  0  0  0  0  0  0
    8.0082  -10.5055    0.0000 C   0  0  0  0  0  0  0  0  0  0  0  0
    5.8648  -10.9180    0.0000 O   0  0  0  0  0  0  0  0  0  0  0  0
    5.8648   -9.2680    0.0000 O   0  0  0  0  0  0  0  0  0  0  0  0
    6.5828   -7.2061    0.0000 C   0  0  2  0  0  0  0  0  0  0  0  0
    5.8676   -6.7948    0.0000 C   0  0  2  0  0  0  0  0  0  0  0  0
    5.1539   -7.2086    0.0000 C   0  0  1  0  0  0  0  0  0  0  0  0
    5.1553   -8.0336    0.0000 C   0  0  2  0  0  0  0  0  0  0  0  0
    5.8705   -8.4448    0.0000 C   0  0  1  0  0  0  0  0  0  0  0  0
    6.5843   -8.0311    0.0000 O   0  0  0  0  0  0  0  0  0  0  0  0
    7.2966   -6.7923    0.0000 C   0  0  0  0  0  0  0  0  0  0  0  0
    4.4387   -6.7973    0.0000 O   0  0  0  0  0  0  0  0  0  0  0  0
    5.8662   -5.9698    0.0000 O   0  0  0  0  0  0  0  0  0  0  0  0
    4.4416   -8.4473    0.0000 O   0  0  0  0  0  0  0  0  0  0  0  0
    7.2951   -5.9673    0.0000 O   0  0  0  0  0  0  0  0  0  0  0  0
  1  2  1  0  0  0  0
  2  3  1  0  0  0  0
  3  4  2  0  0  0  0
  2  5  2  0  0  0  0
  4  6  1  0  0  0  0
  6  7  2  0  0  0  0
  7  8  1  0  0  0  0
  8  9  2  0  0  0  0
  9 10  1  0  0  0  0
 10 11  2  0  0  0  0
 11  6  1  0  0  0  0
  9 12  1  0  0  0  0
  8 13  1  0  0  0  0
 14 15  1  0  0  0  0
 15 16  1  0  0  0  0
 16 17  1  0  0  0  0
 17 18  1  0  0  0  0
 18 19  1  0  0  0  0
 19 14  1  0  0  0  0
 14 20  1  1  0  0  0
 16 21  1  1  0  0  0
 15 22  1  6  0  0  0
 17 23  1  6  0  0  0
 20 24  1  0  0  0  0
 18 13  1  1  0  0  0
M  END
>  <cdx:fragmentId>
5

$$$$
