99725.cdx
  Mrv1902 05222410252D          

 42 45  0  0  0  0            999 V2000
    4.3782   -8.6435    0.0000 C   0  0  0  0  0  0  0  0  0  0  0  0
    3.6638   -8.2310    0.0000 C   0  0  0  0  0  0  0  0  0  0  0  0
    3.6638   -7.4060    0.0000 C   0  0  0  0  0  0  0  0  0  0  0  0
    4.3782   -6.9935    0.0000 C   0  0  0  0  0  0  0  0  0  0  0  0
    5.0927   -7.4060    0.0000 C   0  0  0  0  0  0  0  0  0  0  0  0
    5.0927   -8.2310    0.0000 C   0  0  0  0  0  0  0  0  0  0  0  0
    4.3782   -9.4685    0.0000 O   0  0  0  0  0  0  0  0  0  0  0  0
    2.9493   -6.9935    0.0000 O   0  0  0  0  0  0  0  0  0  0  0  0
    5.8072   -6.9935    0.0000 C   0  0  0  0  0  0  0  0  0  0  0  0
    6.5216   -7.4060    0.0000 C   0  0  0  0  0  0  0  0  0  0  0  0
    7.2361   -6.9935    0.0000 C   0  0  0  0  0  0  0  0  0  0  0  0
    7.2361   -6.1685    0.0000 C   0  0  0  0  0  0  0  0  0  0  0  0
    7.9506   -5.7560    0.0000 C   0  0  0  0  0  0  0  0  0  0  0  0
    8.6650   -6.1685    0.0000 C   0  0  0  0  0  0  0  0  0  0  0  0
    8.6650   -6.9935    0.0000 C   0  0  0  0  0  0  0  0  0  0  0  0
    7.9506   -7.4060    0.0000 C   0  0  0  0  0  0  0  0  0  0  0  0
    9.3795   -5.7560    0.0000 O   0  0  0  0  0  0  0  0  0  0  0  0
    2.2348   -7.4060    0.0000 C   0  0  0  0  0  0  0  0  0  0  0  0
    1.5203   -6.9935    0.0000 O   0  0  0  0  0  0  0  0  0  0  0  0
    2.2348   -8.2310    0.0000 O   0  0  0  0  0  0  0  0  0  0  0  0
   10.8053   -7.3872    0.0000 C   0  0  2  0  0  0  0  0  0  0  0  0
   11.5178   -6.9712    0.0000 C   0  0  2  0  0  0  0  0  0  0  0  0
   11.5138   -6.1462    0.0000 C   0  0  1  0  0  0  0  0  0  0  0  0
   10.7973   -5.7372    0.0000 C   0  0  2  0  0  0  0  0  0  0  0  0
   10.0849   -6.1532    0.0000 C   0  0  1  0  0  0  0  0  0  0  0  0
   10.0889   -6.9782    0.0000 O   0  0  0  0  0  0  0  0  0  0  0  0
   10.8093   -8.2122    0.0000 C   0  0  0  0  0  0  0  0  0  0  0  0
   12.2263   -5.7303    0.0000 O   0  0  0  0  0  0  0  0  0  0  0  0
   12.2343   -7.3803    0.0000 O   0  0  0  0  0  0  0  0  0  0  0  0
   10.7933   -4.9122    0.0000 O   0  0  0  0  0  0  0  0  0  0  0  0
   11.5258   -8.6212    0.0000 O   0  0  0  0  0  0  0  0  0  0  0  0
   11.5276   -9.4425    0.0000 C   0  0  0  0  0  0  0  0  0  0  0  0
   10.8141   -9.8567    0.0000 C   0  0  0  0  0  0  0  0  0  0  0  0
   12.2431   -9.8533    0.0000 O   0  0  0  0  0  0  0  0  0  0  0  0
   10.0987   -9.4458    0.0000 C   0  0  0  0  0  0  0  0  0  0  0  0
    9.3852   -9.8600    0.0000 C   0  0  0  0  0  0  0  0  0  0  0  0
    9.3871  -10.6850    0.0000 C   0  0  0  0  0  0  0  0  0  0  0  0
   10.1026  -11.0958    0.0000 C   0  0  0  0  0  0  0  0  0  0  0  0
   10.8161  -10.6817    0.0000 C   0  0  0  0  0  0  0  0  0  0  0  0
    8.6698   -9.4492    0.0000 O   0  0  0  0  0  0  0  0  0  0  0  0
    8.6736  -11.0992    0.0000 O   0  0  0  0  0  0  0  0  0  0  0  0
   10.1045  -11.9208    0.0000 O   0  0  0  0  0  0  0  0  0  0  0  0
  1  2  1  0  0  0  0
  2  3  2  0  0  0  0
  3  4  1  0  0  0  0
  4  5  2  0  0  0  0
  5  6  1  0  0  0  0
  1  6  2  0  0  0  0
  1  7  1  0  0  0  0
  3  8  1  0  0  0  0
  9 10  2  0  0  0  0
 11 12  1  0  0  0  0
 12 13  2  0  0  0  0
 13 14  1  0  0  0  0
 14 15  2  0  0  0  0
 15 16  1  0  0  0  0
 11 16  2  0  0  0  0
 14 17  1  0  0  0  0
 10 11  1  0  0  0  0
  5  9  1  0  0  0  0
  8 18  1  0  0  0  0
 18 19  1  0  0  0  0
 18 20  2  0  0  0  0
 21 22  1  0  0  0  0
 22 23  1  0  0  0  0
 23 24  1  0  0  0  0
 24 25  1  0  0  0  0
 25 26  1  0  0  0  0
 26 21  1  0  0  0  0
 21 27  1  1  0  0  0
 23 28  1  1  0  0  0
 22 29  1  6  0  0  0
 24 30  1  6  0  0  0
 27 31  1  0  0  0  0
 25 17  1  1  0  0  0
 32 33  1  0  0  0  0
 32 34  2  0  0  0  0
 33 35  2  0  0  0  0
 35 36  1  0  0  0  0
 36 37  2  0  0  0  0
 37 38  1  0  0  0  0
 38 39  2  0  0  0  0
 39 33  1  0  0  0  0
 36 40  1  0  0  0  0
 37 41  1  0  0  0  0
 38 42  1  0  0  0  0
 32 31  1  0  0  0  0
M  END
>  <cdx:fragmentId>
336

$$$$
