99724.cdx
  Mrv1902 05222410262D          

 42 45  0  0  0  0            999 V2000
    4.5982  -11.4485    0.0000 C   0  0  0  0  0  0  0  0  0  0  0  0
    3.8838  -11.0360    0.0000 C   0  0  0  0  0  0  0  0  0  0  0  0
    3.8838  -10.2110    0.0000 C   0  0  0  0  0  0  0  0  0  0  0  0
    4.5982   -9.7985    0.0000 C   0  0  0  0  0  0  0  0  0  0  0  0
    5.3127  -10.2110    0.0000 C   0  0  0  0  0  0  0  0  0  0  0  0
    5.3127  -11.0360    0.0000 C   0  0  0  0  0  0  0  0  0  0  0  0
    4.5982  -12.2735    0.0000 O   0  0  0  0  0  0  0  0  0  0  0  0
    3.1693   -9.7985    0.0000 O   0  0  0  0  0  0  0  0  0  0  0  0
    6.0272   -9.7985    0.0000 C   0  0  0  0  0  0  0  0  0  0  0  0
    6.7416  -10.2110    0.0000 C   0  0  0  0  0  0  0  0  0  0  0  0
    7.4561   -9.7985    0.0000 C   0  0  0  0  0  0  0  0  0  0  0  0
    7.4561   -8.9735    0.0000 C   0  0  0  0  0  0  0  0  0  0  0  0
    8.1706   -8.5610    0.0000 C   0  0  0  0  0  0  0  0  0  0  0  0
    8.8850   -8.9735    0.0000 C   0  0  0  0  0  0  0  0  0  0  0  0
    8.8850   -9.7985    0.0000 C   0  0  0  0  0  0  0  0  0  0  0  0
    8.1706  -10.2110    0.0000 C   0  0  0  0  0  0  0  0  0  0  0  0
    9.5995   -8.5610    0.0000 O   0  0  0  0  0  0  0  0  0  0  0  0
    2.4548  -10.2110    0.0000 C   0  0  0  0  0  0  0  0  0  0  0  0
    1.7403   -9.7985    0.0000 O   0  0  0  0  0  0  0  0  0  0  0  0
    2.4548  -11.0360    0.0000 O   0  0  0  0  0  0  0  0  0  0  0  0
   11.0253  -10.1922    0.0000 C   0  0  2  0  0  0  0  0  0  0  0  0
   11.7378   -9.7762    0.0000 C   0  0  2  0  0  0  0  0  0  0  0  0
   11.7338   -8.9512    0.0000 C   0  0  1  0  0  0  0  0  0  0  0  0
   11.0173   -8.5422    0.0000 C   0  0  2  0  0  0  0  0  0  0  0  0
   10.3049   -8.9582    0.0000 C   0  0  1  0  0  0  0  0  0  0  0  0
   10.3089   -9.7832    0.0000 O   0  0  0  0  0  0  0  0  0  0  0  0
   11.0293  -11.0172    0.0000 C   0  0  0  0  0  0  0  0  0  0  0  0
   12.4463   -8.5353    0.0000 O   0  0  0  0  0  0  0  0  0  0  0  0
   12.4543  -10.1853    0.0000 O   0  0  0  0  0  0  0  0  0  0  0  0
   11.0133   -7.7172    0.0000 O   0  0  0  0  0  0  0  0  0  0  0  0
   11.7458  -11.4262    0.0000 O   0  0  0  0  0  0  0  0  0  0  0  0
   10.2969   -7.3082    0.0000 C   0  0  0  0  0  0  0  0  0  0  0  0
   10.2929   -6.4832    0.0000 C   0  0  0  0  0  0  0  0  0  0  0  0
    9.5844   -7.7241    0.0000 O   0  0  0  0  0  0  0  0  0  0  0  0
   11.0053   -6.0672    0.0000 C   0  0  0  0  0  0  0  0  0  0  0  0
   11.0013   -5.2422    0.0000 C   0  0  0  0  0  0  0  0  0  0  0  0
   10.2849   -4.8332    0.0000 C   0  0  0  0  0  0  0  0  0  0  0  0
    9.5724   -5.2492    0.0000 C   0  0  0  0  0  0  0  0  0  0  0  0
    9.5764   -6.0742    0.0000 C   0  0  0  0  0  0  0  0  0  0  0  0
   11.7138   -4.8263    0.0000 O   0  0  0  0  0  0  0  0  0  0  0  0
   10.2809   -4.0082    0.0000 O   0  0  0  0  0  0  0  0  0  0  0  0
    8.8559   -4.8401    0.0000 O   0  0  0  0  0  0  0  0  0  0  0  0
  1  2  1  0  0  0  0
  2  3  2  0  0  0  0
  3  4  1  0  0  0  0
  4  5  2  0  0  0  0
  5  6  1  0  0  0  0
  1  6  2  0  0  0  0
  1  7  1  0  0  0  0
  3  8  1  0  0  0  0
  9 10  2  0  0  0  0
 11 12  1  0  0  0  0
 12 13  2  0  0  0  0
 13 14  1  0  0  0  0
 14 15  2  0  0  0  0
 15 16  1  0  0  0  0
 11 16  2  0  0  0  0
 14 17  1  0  0  0  0
 10 11  1  0  0  0  0
  5  9  1  0  0  0  0
  8 18  1  0  0  0  0
 18 19  1  0  0  0  0
 18 20  2  0  0  0  0
 21 22  1  0  0  0  0
 22 23  1  0  0  0  0
 23 24  1  0  0  0  0
 24 25  1  0  0  0  0
 25 26  1  0  0  0  0
 26 21  1  0  0  0  0
 21 27  1  1  0  0  0
 23 28  1  1  0  0  0
 22 29  1  6  0  0  0
 24 30  1  6  0  0  0
 27 31  1  0  0  0  0
 30 32  1  0  0  0  0
 32 33  1  0  0  0  0
 32 34  2  0  0  0  0
 33 35  2  0  0  0  0
 35 36  1  0  0  0  0
 36 37  2  0  0  0  0
 37 38  1  0  0  0  0
 38 39  2  0  0  0  0
 39 33  1  0  0  0  0
 36 40  1  0  0  0  0
 37 41  1  0  0  0  0
 38 42  1  0  0  0  0
 25 17  1  1  0  0  0
M  END
>  <cdx:fragmentId>
336

$$$$
