99720.cdx
  Mrv1902 05222410232D          

 34 37  0  0  0  0            999 V2000
    6.4812  -11.3080    0.0000 C   0  0  0  0  0  0  0  0  0  0  0  0
    6.4812  -10.4830    0.0000 C   0  0  0  0  0  0  0  0  0  0  0  0
    7.1956  -10.0705    0.0000 C   0  0  0  0  0  0  0  0  0  0  0  0
    7.9101  -10.4830    0.0000 C   0  0  0  0  0  0  0  0  0  0  0  0
    7.9101  -11.3080    0.0000 C   0  0  0  0  0  0  0  0  0  0  0  0
    7.1956  -11.7205    0.0000 C   0  0  0  0  0  0  0  0  0  0  0  0
    5.7667  -11.7205    0.0000 O   0  0  0  0  0  0  0  0  0  0  0  0
    8.6246  -10.0705    0.0000 C   0  0  0  0  0  0  0  0  0  0  0  0
    9.3391  -10.4830    0.0000 C   0  0  0  0  0  0  0  0  0  0  0  0
   10.0535  -10.0705    0.0000 C   0  0  0  0  0  0  0  0  0  0  0  0
   10.7680  -10.4830    0.0000 C   0  0  0  0  0  0  0  0  0  0  0  0
   10.7680  -11.3080    0.0000 C   0  0  0  0  0  0  0  0  0  0  0  0
   10.0535  -11.7205    0.0000 C   0  0  0  0  0  0  0  0  0  0  0  0
    9.3391  -11.3080    0.0000 C   0  0  0  0  0  0  0  0  0  0  0  0
   11.4825  -11.7205    0.0000 O   0  0  0  0  0  0  0  0  0  0  0  0
    5.7667  -10.0705    0.0000 C   0  0  0  0  0  0  0  0  0  0  0  0
    5.0522  -10.4830    0.0000 C   0  0  0  0  0  0  0  0  0  0  0  0
    5.0522  -11.3080    0.0000 C   0  0  0  0  0  0  0  0  0  0  0  0
    4.3378  -11.7205    0.0000 C   0  0  0  0  0  0  0  0  0  0  0  0
    3.6233  -11.3080    0.0000 C   0  0  0  0  0  0  0  0  0  0  0  0
    3.6233  -10.4830    0.0000 C   0  0  0  0  0  0  0  0  0  0  0  0
    4.3378  -10.0705    0.0000 C   0  0  0  0  0  0  0  0  0  0  0  0
    2.9088  -11.7205    0.0000 O   0  0  0  0  0  0  0  0  0  0  0  0
    7.1956   -9.2455    0.0000 C   0  0  0  0  0  0  0  0  0  0  0  0
    6.4812   -8.8330    0.0000 C   0  0  0  0  0  0  0  0  0  0  0  0
    6.4812   -8.0080    0.0000 C   0  0  0  0  0  0  0  0  0  0  0  0
    5.7667   -7.5955    0.0000 C   0  0  0  0  0  0  0  0  0  0  0  0
    5.7667   -6.7705    0.0000 C   0  0  0  0  0  0  0  0  0  0  0  0
    6.4812   -6.3580    0.0000 C   0  0  0  0  0  0  0  0  0  0  0  0
    7.1956   -6.7705    0.0000 C   0  0  0  0  0  0  0  0  0  0  0  0
    7.1956   -7.5955    0.0000 C   0  0  0  0  0  0  0  0  0  0  0  0
    7.9101   -6.3580    0.0000 O   0  0  0  0  0  0  0  0  0  0  0  0
    8.6246   -6.7705    0.0000 C   0  0  0  0  0  0  0  0  0  0  0  0
    5.0522   -6.3580    0.0000 O   0  0  0  0  0  0  0  0  0  0  0  0
  1  2  1  0  0  0  0
  2  3  2  0  0  0  0
  3  4  1  0  0  0  0
  4  5  2  0  0  0  0
  5  6  1  0  0  0  0
  1  6  2  0  0  0  0
  1  7  1  0  0  0  0
  9 10  1  0  0  0  0
 10 11  2  0  0  0  0
 11 12  1  0  0  0  0
 12 13  2  0  0  0  0
 13 14  1  0  0  0  0
  9 14  2  0  0  0  0
 12 15  1  0  0  0  0
  8  9  1  0  0  0  0
  4  8  1  0  0  0  0
 17 18  1  0  0  0  0
 18 19  2  0  0  0  0
 19 20  1  0  0  0  0
 20 21  2  0  0  0  0
 21 22  1  0  0  0  0
 17 22  2  0  0  0  0
 20 23  1  0  0  0  0
 16 17  1  0  0  0  0
  2 16  1  0  0  0  0
 24 25  1  0  0  0  0
 26 27  1  0  0  0  0
 27 28  2  0  0  0  0
 28 29  1  0  0  0  0
 29 30  2  0  0  0  0
 30 31  1  0  0  0  0
 26 31  2  0  0  0  0
 32 33  1  0  0  0  0
 30 32  1  0  0  0  0
 28 34  1  0  0  0  0
 25 26  1  0  0  0  0
  3 24  1  0  0  0  0
M  END
>  <cdx:fragmentId>
21

$$$$
