99723.cdx
  Mrv1902 05222410242D          

 34 37  0  0  0  0            999 V2000
    6.2406   -9.1839    0.0000 C   0  0  0  0  0  0  0  0  0  0  0  0
    6.2406  -10.0089    0.0000 C   0  0  0  0  0  0  0  0  0  0  0  0
    6.9550  -10.4214    0.0000 C   0  0  0  0  0  0  0  0  0  0  0  0
    7.6695  -10.0089    0.0000 C   0  0  0  0  0  0  0  0  0  0  0  0
    7.6695   -9.1839    0.0000 C   0  0  0  0  0  0  0  0  0  0  0  0
    6.9550   -8.7714    0.0000 C   0  0  0  0  0  0  0  0  0  0  0  0
    8.3840  -10.4214    0.0000 C   0  0  0  0  0  0  0  0  0  0  0  0
    9.0984  -10.0089    0.0000 C   0  0  0  0  0  0  0  0  0  0  0  0
    9.0984   -9.1839    0.0000 C   0  0  0  0  0  0  0  0  0  0  0  0
    8.3840   -8.7714    0.0000 C   0  0  0  0  0  0  0  0  0  0  0  0
    9.8129  -10.4214    0.0000 C   0  0  0  0  0  0  0  0  0  0  0  0
   10.5274  -10.0089    0.0000 C   0  0  0  0  0  0  0  0  0  0  0  0
   10.5274   -9.1839    0.0000 C   0  0  0  0  0  0  0  0  0  0  0  0
    9.8129   -8.7714    0.0000 C   0  0  0  0  0  0  0  0  0  0  0  0
    6.9550   -7.9464    0.0000 O   0  0  0  0  0  0  0  0  0  0  0  0
    8.3840   -7.9464    0.0000 O   0  0  0  0  0  0  0  0  0  0  0  0
    8.3840  -11.2464    0.0000 O   0  0  0  0  0  0  0  0  0  0  0  0
    9.8129   -7.9464    0.0000 O   0  0  0  0  0  0  0  0  0  0  0  0
   11.2419  -10.4214    0.0000 C   0  0  0  0  0  0  0  0  0  0  0  0
   11.9563  -10.0089    0.0000 O   0  0  0  0  0  0  0  0  0  0  0  0
    6.2406   -7.5339    0.0000 C   0  0  2  0  0  0  0  0  0  0  0  0
    6.2406   -6.7089    0.0000 O   0  0  0  0  0  0  0  0  0  0  0  0
    5.5261   -6.2964    0.0000 C   0  0  1  0  0  0  0  0  0  0  0  0
    4.8116   -6.7089    0.0000 C   0  0  2  0  0  0  0  0  0  0  0  0
    4.8116   -7.5339    0.0000 C   0  0  1  0  0  0  0  0  0  0  0  0
    5.5261   -7.9464    0.0000 C   0  0  1  0  0  0  0  0  0  0  0  0
    5.5261   -5.4714    0.0000 C   0  0  0  0  0  0  0  0  0  0  0  0
    4.0971   -7.9464    0.0000 O   0  0  0  0  0  0  0  0  0  0  0  0
    5.5261   -8.7714    0.0000 O   0  0  0  0  0  0  0  0  0  0  0  0
    4.0971   -6.2964    0.0000 O   0  0  0  0  0  0  0  0  0  0  0  0
    4.8116   -5.0589    0.0000 O   0  0  0  0  0  0  0  0  0  0  0  0
    4.8116   -4.2339    0.0000 C   0  0  0  0  0  0  0  0  0  0  0  0
    4.0971   -3.8214    0.0000 C   0  0  0  0  0  0  0  0  0  0  0  0
    5.5261   -3.8214    0.0000 O   0  0  0  0  0  0  0  0  0  0  0  0
  1  2  1  0  0  0  0
  2  3  2  0  0  0  0
  3  4  1  0  0  0  0
  4  5  2  0  0  0  0
  5  6  1  0  0  0  0
  6  1  2  0  0  0  0
  4  7  1  0  0  0  0
  7  8  1  0  0  0  0
  8  9  2  0  0  0  0
  9 10  1  0  0  0  0
 10  5  1  0  0  0  0
  8 11  1  0  0  0  0
 11 12  2  0  0  0  0
 12 13  1  0  0  0  0
 13 14  2  0  0  0  0
 14  9  1  0  0  0  0
  6 15  1  0  0  0  0
 10 16  2  0  0  0  0
  7 17  2  0  0  0  0
 14 18  1  0  0  0  0
 12 19  1  0  0  0  0
 19 20  1  0  0  0  0
 21 15  1  1  0  0  0
 21 22  1  0  0  0  0
 22 23  1  0  0  0  0
 23 24  1  0  0  0  0
 24 25  1  0  0  0  0
 25 26  1  0  0  0  0
 26 21  1  0  0  0  0
 23 27  1  1  0  0  0
 25 28  1  1  0  0  0
 26 29  1  6  0  0  0
 24 30  1  6  0  0  0
 27 31  1  0  0  0  0
 31 32  1  0  0  0  0
 32 33  1  0  0  0  0
 32 34  2  0  0  0  0
M  END
>  <cdx:fragmentId>
110

$$$$
