99728.cdx
  Mrv1902 05222410212D          

 27 29  0  0  0  0            999 V2000
    6.4262   -8.9513    0.0000 C   0  0  0  0  0  0  0  0  0  0  0  0
    6.4262   -9.7763    0.0000 C   0  0  0  0  0  0  0  0  0  0  0  0
    7.1406  -10.1888    0.0000 O   0  0  0  0  0  0  0  0  0  0  0  0
    7.8551   -9.7763    0.0000 C   0  0  0  0  0  0  0  0  0  0  0  0
    7.8551   -8.9513    0.0000 C   0  0  0  0  0  0  0  0  0  0  0  0
    7.1406   -8.5388    0.0000 C   0  0  0  0  0  0  0  0  0  0  0  0
    8.5696  -10.1888    0.0000 C   0  0  0  0  0  0  0  0  0  0  0  0
    9.2841   -9.7763    0.0000 C   0  0  0  0  0  0  0  0  0  0  0  0
    9.2841   -8.9513    0.0000 C   0  0  0  0  0  0  0  0  0  0  0  0
    8.5696   -8.5388    0.0000 C   0  0  0  0  0  0  0  0  0  0  0  0
    9.9985   -8.5388    0.0000 C   0  0  0  0  0  0  0  0  0  0  0  0
    9.9985   -7.7138    0.0000 C   0  0  0  0  0  0  0  0  0  0  0  0
    9.2841   -7.3012    0.0000 C   0  0  0  0  0  0  0  0  0  0  0  0
    8.5696   -7.7138    0.0000 O   0  0  0  0  0  0  0  0  0  0  0  0
    9.2841   -6.4763    0.0000 O   0  0  0  0  0  0  0  0  0  0  0  0
    5.6012   -9.7763    0.0000 C   0  0  0  0  0  0  0  0  0  0  0  0
    6.0137  -10.4907    0.0000 C   0  0  0  0  0  0  0  0  0  0  0  0
    5.7117   -8.5388    0.0000 O   0  0  0  0  0  0  0  0  0  0  0  0
    7.1406   -7.7138    0.0000 O   0  0  0  0  0  0  0  0  0  0  0  0
    3.5676   -4.0109    0.0000 C   0  0  0  0  0  0  0  0  0  0  0  0
    3.5678   -4.8359    0.0000 C   0  0  0  0  0  0  0  0  0  0  0  0
    4.2824   -5.2482    0.0000 C   0  0  0  0  0  0  0  0  0  0  0  0
    4.2826   -6.0732    0.0000 C   0  0  0  0  0  0  0  0  0  0  0  0
    4.9972   -6.4855    0.0000 C   0  0  0  0  0  0  0  0  0  0  0  0
    4.9974   -7.3105    0.0000 C   0  0  0  0  0  0  0  0  0  0  0  0
    5.7120   -7.7228    0.0000 C   0  0  0  0  0  0  0  0  0  0  0  0
    6.4264   -7.3101    0.0000 O   0  0  0  0  0  0  0  0  0  0  0  0
  1  2  1  0  0  0  0
  2  3  1  0  0  0  0
  3  4  1  0  0  0  0
  4  5  2  0  0  0  0
  5  6  1  0  0  0  0
  6  1  1  0  0  0  0
  4  7  1  0  0  0  0
  7  8  2  0  0  0  0
  8  9  1  0  0  0  0
  9 10  2  0  0  0  0
 10  5  1  0  0  0  0
  9 11  1  0  0  0  0
 11 12  2  0  0  0  0
 12 13  1  0  0  0  0
 13 14  1  0  0  0  0
 14 10  1  0  0  0  0
 13 15  2  0  0  0  0
  2 16  1  0  0  0  0
  2 17  1  0  0  0  0
  1 18  1  0  0  0  0
  6 19  2  0  0  0  0
 21 20  2  0  0  0  0
 22 21  1  0  0  0  0
 23 22  1  0  0  0  0
 24 23  1  0  0  0  0
 25 24  1  0  0  0  0
 26 25  1  0  0  0  0
 26 27  2  0  0  0  0
 26 18  1  0  0  0  0
M  END
>  <cdx:fragmentId>
5

$$$$
