99729.cdx
  Mrv1902 05222410202D          

 44 48  0  0  0  0            999 V2000
    8.5704   -5.7972    0.0000 C   0  0  0  0  0  0  0  0  0  0  0  0
    8.5704   -6.6222    0.0000 C   0  0  0  0  0  0  0  0  0  0  0  0
    7.8559   -7.0347    0.0000 C   0  0  0  0  0  0  0  0  0  0  0  0
    7.8559   -7.8597    0.0000 O   0  0  0  0  0  0  0  0  0  0  0  0
    7.1414   -6.6222    0.0000 C   0  0  0  0  0  0  0  0  0  0  0  0
    6.4270   -7.0347    0.0000 C   0  0  0  0  0  0  0  0  0  0  0  0
    6.4270   -7.8597    0.0000 O   0  0  0  0  0  0  0  0  0  0  0  0
    5.7125   -6.6222    0.0000 C   0  0  0  0  0  0  0  0  0  0  0  0
    5.7125   -5.7972    0.0000 C   0  0  0  0  0  0  0  0  0  0  0  0
    4.9980   -5.3847    0.0000 O   0  0  0  0  0  0  0  0  0  0  0  0
    6.4270   -5.3847    0.0000 C   0  0  0  0  0  0  0  0  0  0  0  0
    7.1414   -5.7972    0.0000 C   0  0  0  0  0  0  0  0  0  0  0  0
    7.8559   -5.3847    0.0000 O   0  0  0  0  0  0  0  0  0  0  0  0
   10.7138   -2.9097    0.0000 C   0  0  0  0  0  0  0  0  0  0  0  0
    9.9993   -5.7972    0.0000 C   0  0  0  0  0  0  0  0  0  0  0  0
   10.7138   -5.3847    0.0000 C   0  0  0  0  0  0  0  0  0  0  0  0
   11.4283   -4.1472    0.0000 O   0  0  0  0  0  0  0  0  0  0  0  0
   10.7138   -4.5597    0.0000 C   0  0  0  0  0  0  0  0  0  0  0  0
    9.9993   -3.3222    0.0000 O   0  0  0  0  0  0  0  0  0  0  0  0
    9.9993   -4.1472    0.0000 C   0  0  0  0  0  0  0  0  0  0  0  0
    9.2849   -4.5597    0.0000 C   0  0  0  0  0  0  0  0  0  0  0  0
    9.2849   -5.3847    0.0000 C   0  0  0  0  0  0  0  0  0  0  0  0
    3.6023   -7.8656    0.0000 C   0  0  2  0  0  0  0  0  0  0  0  0
    4.3167   -8.2783    0.0000 C   0  0  1  0  0  0  0  0  0  0  0  0
    5.0313   -7.8660    0.0000 C   0  0  2  0  0  0  0  0  0  0  0  0
    5.0315   -7.0410    0.0000 C   0  0  1  0  0  0  0  0  0  0  0  0
    4.3172   -6.6283    0.0000 O   0  0  0  0  0  0  0  0  0  0  0  0
    3.6026   -7.0406    0.0000 C   0  0  0  0  0  0  0  0  0  0  0  0
    2.8877   -8.2778    0.0000 O   0  0  0  0  0  0  0  0  0  0  0  0
    4.3164   -9.1033    0.0000 O   0  0  0  0  0  0  0  0  0  0  0  0
    5.7456   -8.2787    0.0000 O   0  0  0  0  0  0  0  0  0  0  0  0
    5.7619  -11.5763    0.0000 O   0  0  0  0  0  0  0  0  0  0  0  0
    7.1911  -10.7517    0.0000 O   0  0  0  0  0  0  0  0  0  0  0  0
    7.1916   -9.1017    0.0000 O   0  0  0  0  0  0  0  0  0  0  0  0
    4.3330  -11.5758    0.0000 O   0  0  0  0  0  0  0  0  0  0  0  0
    3.6189  -10.3381    0.0000 O   0  0  0  0  0  0  0  0  0  0  0  0
    4.3332  -10.7508    0.0000 C   0  0  0  0  0  0  0  0  0  0  0  0
    5.7627   -9.1013    0.0000 C   0  0  1  0  0  0  0  0  0  0  0  0
    6.4770   -9.5140    0.0000 C   0  0  1  0  0  0  0  0  0  0  0  0
    6.4768  -10.3390    0.0000 C   0  0  2  0  0  0  0  0  0  0  0  0
    5.7622  -10.7513    0.0000 C   0  0  2  0  0  0  0  0  0  0  0  0
    5.0478  -10.3385    0.0000 C   0  0  2  0  0  0  0  0  0  0  0  0
    5.0481   -9.5135    0.0000 O   0  0  0  0  0  0  0  0  0  0  0  0
    5.0318   -6.2160    0.0000 H   0  0  0  0  0  0  0  0  0  0  0  0
 19 14  1  0  0  0  0
 22 15  2  0  0  0  0
 16 15  1  0  0  0  0
 18 16  2  0  0  0  0
 18 17  1  0  0  0  0
 20 18  1  0  0  0  0
 20 19  1  0  0  0  0
  1  2  2  0  0  0  0
  2  3  1  0  0  0  0
  3  4  2  0  0  0  0
  3  5  1  0  0  0  0
  5  6  1  0  0  0  0
  6  7  1  0  0  0  0
  6  8  2  0  0  0  0
  8  9  1  0  0  0  0
  9 10  1  0  0  0  0
  9 11  2  0  0  0  0
 11 12  1  0  0  0  0
  5 12  2  0  0  0  0
 12 13  1  0  0  0  0
  1 13  1  0  0  0  0
  1 22  1  0  0  0  0
 21 20  2  0  0  0  0
 22 21  1  0  0  0  0
 23 24  1  0  0  0  0
 24 25  1  0  0  0  0
 25 26  1  0  0  0  0
 26 27  1  0  0  0  0
 27 28  1  0  0  0  0
 28 23  1  0  0  0  0
 23 29  1  1  0  0  0
 24 30  1  1  0  0  0
 25 31  1  6  0  0  0
 41 32  1  1  0  0  0
 40 33  1  1  0  0  0
 39 34  1  6  0  0  0
 42 37  1  1  0  0  0
 37 35  1  0  0  0  0
 37 36  2  0  0  0  0
 43 38  1  0  0  0  0
 39 38  1  0  0  0  0
 40 39  1  0  0  0  0
 41 40  1  0  0  0  0
 42 41  1  0  0  0  0
 43 42  1  0  0  0  0
 38 31  1  1  0  0  0
 26  8  1  0  0  0  0
 26 44  1  6  0  0  0
M  END
>  <cdx:fragmentId>
5

$$$$
