99735.cdx
  Mrv1902 05222410242D          

 41 44  0  0  0  0            999 V2000
    9.2736   -8.0110    0.0000 C   0  0  0  0  0  0  0  0  0  0  0  0
    9.9881   -7.5985    0.0000 C   0  0  0  0  0  0  0  0  0  0  0  0
    9.9881   -6.7735    0.0000 C   0  0  0  0  0  0  0  0  0  0  0  0
   10.7026   -6.3610    0.0000 O   0  0  0  0  0  0  0  0  0  0  0  0
    9.2736   -6.3610    0.0000 C   0  0  0  0  0  0  0  0  0  0  0  0
    9.2736   -5.5360    0.0000 C   0  0  0  0  0  0  0  0  0  0  0  0
    8.5592   -5.1235    0.0000 C   0  0  0  0  0  0  0  0  0  0  0  0
    7.8447   -5.5360    0.0000 C   0  0  0  0  0  0  0  0  0  0  0  0
    7.8447   -6.3610    0.0000 C   0  0  0  0  0  0  0  0  0  0  0  0
    8.5592   -6.7735    0.0000 C   0  0  0  0  0  0  0  0  0  0  0  0
    8.5592   -7.5985    0.0000 O   0  0  0  0  0  0  0  0  0  0  0  0
    9.9881   -5.1235    0.0000 C   0  0  0  0  0  0  0  0  0  0  0  0
    7.1302   -5.1235    0.0000 O   0  0  0  0  0  0  0  0  0  0  0  0
    6.4157   -5.5360    0.0000 C   0  0  0  0  0  0  0  0  0  0  0  0
    7.1302   -6.7735    0.0000 C   0  0  1  0  0  0  0  0  0  0  0  0
    7.1302   -7.5985    0.0000 C   0  0  2  0  0  0  0  0  0  0  0  0
    7.8447   -8.0110    0.0000 O   0  0  0  0  0  0  0  0  0  0  0  0
    6.4157   -8.0110    0.0000 C   0  0  1  0  0  0  0  0  0  0  0  0
    6.4157   -8.8360    0.0000 O   0  0  0  0  0  0  0  0  0  0  0  0
    5.7013   -7.5985    0.0000 C   0  0  2  0  0  0  0  0  0  0  0  0
    4.9868   -8.0110    0.0000 O   0  0  0  0  0  0  0  0  0  0  0  0
    5.7013   -6.7735    0.0000 C   0  0  2  0  0  0  0  0  0  0  0  0
    6.4157   -6.3610    0.0000 O   0  0  0  0  0  0  0  0  0  0  0  0
    4.9868   -6.3610    0.0000 C   0  0  0  0  0  0  0  0  0  0  0  0
    4.2723   -6.7735    0.0000 O   0  0  0  0  0  0  0  0  0  0  0  0
    9.9816   -9.2421    0.0000 C   0  0  2  0  0  0  0  0  0  0  0  0
   10.6960   -8.8294    0.0000 C   0  0  0  0  0  0  0  0  0  0  0  0
    9.9818  -10.0671    0.0000 O   0  0  0  0  0  0  0  0  0  0  0  0
    9.2736   -8.8360    0.0000 C   0  0  0  0  0  0  0  0  0  0  0  0
    7.0727  -12.5262    0.0000 C   0  0  0  0  0  0  0  0  0  0  0  0
    7.0842  -11.7013    0.0000 O   0  0  0  0  0  0  0  0  0  0  0  0
    8.5474   -9.2464    0.0000 O   0  0  0  0  0  0  0  0  0  0  0  0
    7.8388   -8.8240    0.0000 C   0  0  0  0  0  0  0  0  0  0  0  0
    7.1186   -9.2265    0.0000 C   0  0  0  0  0  0  0  0  0  0  0  0
    7.1071  -10.0514    0.0000 C   0  0  0  0  0  0  0  0  0  0  0  0
    6.3755  -11.2789    0.0000 C   0  0  0  0  0  0  0  0  0  0  0  0
    6.3870  -10.4539    0.0000 C   0  0  0  0  0  0  0  0  0  0  0  0
    5.6783  -10.0315    0.0000 C   0  0  0  0  0  0  0  0  0  0  0  0
    4.9582  -10.4340    0.0000 C   0  0  0  0  0  0  0  0  0  0  0  0
    4.9467  -11.2590    0.0000 C   0  0  0  0  0  0  0  0  0  0  0  0
    5.6553  -11.6814    0.0000 C   0  0  0  0  0  0  0  0  0  0  0  0
  1  2  2  0  0  0  0
  2  3  1  0  0  0  0
  3  4  2  0  0  0  0
  3  5  1  0  0  0  0
  5  6  1  0  0  0  0
  6  7  2  0  0  0  0
  7  8  1  0  0  0  0
  8  9  2  0  0  0  0
  9 10  1  0  0  0  0
  5 10  2  0  0  0  0
 10 11  1  0  0  0  0
  1 11  1  0  0  0  0
  6 12  1  0  0  0  0
 13 14  1  0  0  0  0
  8 13  1  0  0  0  0
 15 16  1  0  0  0  0
 16 17  1  6  0  0  0
 16 18  1  0  0  0  0
 18 19  1  1  0  0  0
 18 20  1  0  0  0  0
 20 21  1  6  0  0  0
 20 22  1  0  0  0  0
 22 23  1  0  0  0  0
 22 24  1  1  0  0  0
 24 25  1  0  0  0  0
 15 23  1  0  0  0  0
 15  9  1  1  0  0  0
 26 27  1  0  0  0  0
 26 28  1  6  0  0  0
  1 29  1  0  0  0  0
 26 29  1  0  0  0  0
 31 30  1  0  0  0  0
 36 31  1  0  0  0  0
 33 32  2  0  0  0  0
 34 33  1  0  0  0  0
 35 34  2  0  0  0  0
 37 35  1  0  0  0  0
 36 41  1  0  0  0  0
 37 36  2  0  0  0  0
 38 37  1  0  0  0  0
 39 38  2  0  0  0  0
 40 39  1  0  0  0  0
 41 40  2  0  0  0  0
 33 17  1  0  0  0  0
M  END
>  <cdx:fragmentId>
5

$$$$
