99734.cdx
  Mrv1902 05222410232D          

 28 29  0  0  0  0            999 V2000
    7.5124   -8.0437    0.0000 C   0  0  0  0  0  0  0  0  0  0  0  0
    7.5124   -8.8688    0.0000 C   0  0  1  0  0  0  0  0  0  0  0  0
    8.2269   -9.2813    0.0000 C   0  0  0  0  0  0  0  0  0  0  0  0
    8.9414   -8.8688    0.0000 C   0  0  1  0  0  0  0  0  0  0  0  0
    8.9414   -8.0437    0.0000 C   0  0  0  0  0  0  0  0  0  0  0  0
    8.2269   -7.6313    0.0000 C   0  0  2  0  0  0  0  0  0  0  0  0
    6.7980   -9.2813    0.0000 O   0  0  0  0  0  0  0  0  0  0  0  0
    7.8144   -6.9168    0.0000 C   0  0  0  0  0  0  0  0  0  0  0  0
    9.7664   -8.8688    0.0000 C   0  0  0  0  0  0  0  0  0  0  0  0
    8.6394   -6.9168    0.0000 C   0  0  0  0  0  0  0  0  0  0  0  0
    9.1549   -9.6656    0.0000 O   0  0  0  0  0  0  0  0  0  0  0  0
    5.3734   -7.6290    0.0000 C   0  0  2  0  0  0  0  0  0  0  0  0
    4.6586   -8.0410    0.0000 C   0  0  2  0  0  0  0  0  0  0  0  0
    4.6581   -8.8660    0.0000 C   0  0  1  0  0  0  0  0  0  0  0  0
    5.3723   -9.2790    0.0000 C   0  0  2  0  0  0  0  0  0  0  0  0
    6.0870   -8.8670    0.0000 C   0  0  1  0  0  0  0  0  0  0  0  0
    6.0876   -8.0420    0.0000 O   0  0  0  0  0  0  0  0  0  0  0  0
    5.3740   -6.8040    0.0000 C   0  0  0  0  0  0  0  0  0  0  0  0
    3.9433   -9.2780    0.0000 O   0  0  0  0  0  0  0  0  0  0  0  0
    3.9445   -7.6280    0.0000 O   0  0  0  0  0  0  0  0  0  0  0  0
    5.3717  -10.1040    0.0000 O   0  0  0  0  0  0  0  0  0  0  0  0
    4.6598   -6.3910    0.0000 O   0  0  0  0  0  0  0  0  0  0  0  0
    9.6558   -7.6313    0.0000 C   0  0  2  0  0  0  0  0  0  0  0  0
   10.3703   -7.2188    0.0000 C   0  0  0  0  0  0  0  0  0  0  0  0
   10.3703   -6.3937    0.0000 H   0  0  0  0  0  0  0  0  0  0  0  0
   11.0848   -7.6312    0.0000 C   0  0  0  0  0  0  0  0  0  0  0  0
   11.7993   -7.2187    0.0000 C   0  0  0  0  0  0  0  0  0  0  0  0
   11.0848   -8.4562    0.0000 O   0  0  0  0  0  0  0  0  0  0  0  0
  1  2  1  0  0  0  0
  2  3  1  0  0  0  0
  3  4  1  0  0  0  0
  4  5  1  0  0  0  0
  5  6  1  0  0  0  0
  6  1  1  0  0  0  0
  2  7  1  1  0  0  0
  6  8  1  1  0  0  0
  4  9  1  1  0  0  0
  6 10  1  6  0  0  0
  4 11  1  6  0  0  0
 12 13  1  0  0  0  0
 13 14  1  0  0  0  0
 14 15  1  0  0  0  0
 15 16  1  0  0  0  0
 16 17  1  0  0  0  0
 17 12  1  0  0  0  0
 12 18  1  1  0  0  0
 14 19  1  1  0  0  0
 13 20  1  6  0  0  0
 15 21  1  6  0  0  0
 18 22  1  0  0  0  0
  5 23  2  0  0  0  0
 23 24  2  0  0  0  0
 16  7  1  1  0  0  0
 24 25  1  1  0  0  0
 24 26  1  6  0  0  0
 26 27  1  0  0  0  0
 26 28  2  0  0  0  0
M  END
>  <cdx:fragmentId>
5

$$$$
