99738.cdx
  Mrv1902 05222410222D          

 72 75  0  0  0  0            999 V2000
    3.2175   -7.0491    0.0000 C   0  0  0  0  0  0  0  0  0  0  0  0
    3.7425   -5.7816    0.0000 N   0  0  0  0  0  0  0  0  0  0  0  0
    5.7525   -4.5140    0.0000 C   0  0  0  0  0  0  0  0  0  0  0  0
    4.4850   -5.0391    0.0000 C   0  0  0  0  0  0  0  0  0  0  0  0
    3.2175   -8.0992    0.0000 C   0  0  0  0  0  0  0  0  0  0  0  0
    3.2175   -8.8417    0.0000 N   0  0  0  0  0  0  0  0  0  0  0  0
    3.2175   -9.8917    0.0000 C   0  0  0  0  0  0  0  0  0  0  0  0
    3.2175  -10.6342    0.0000 C   0  0  0  0  0  0  0  0  0  0  0  0
    3.7425  -11.1592    0.0000 N   0  0  0  0  0  0  0  0  0  0  0  0
    4.4850  -11.9017    0.0000 C   0  0  0  0  0  0  0  0  0  0  0  0
    5.0100  -12.4268    0.0000 C   0  0  0  0  0  0  0  0  0  0  0  0
    6.1238  -12.4391    0.0000 N   0  0  0  0  0  0  0  0  0  0  0  0
    7.1614  -12.4391    0.0000 C   0  0  0  0  0  0  0  0  0  0  0  0
    8.1867  -12.4144    0.0000 C   0  0  0  0  0  0  0  0  0  0  0  0
    9.3376  -12.4268    0.0000 N   0  0  0  0  0  0  0  0  0  0  0  0
    9.8626  -11.9017    0.0000 C   0  0  0  0  0  0  0  0  0  0  0  0
    7.5451   -4.5140    0.0000 C   0  0  0  0  0  0  0  0  0  0  0  0
    6.8026   -4.5140    0.0000 N   0  0  0  0  0  0  0  0  0  0  0  0
    9.8626   -5.0391    0.0000 N   0  0  0  0  0  0  0  0  0  0  0  0
    8.5951   -4.5140    0.0000 C   0  0  0  0  0  0  0  0  0  0  0  0
   11.1302   -7.0491    0.0000 C   0  0  0  0  0  0  0  0  0  0  0  0
   10.6051   -5.7816    0.0000 C   0  0  0  0  0  0  0  0  0  0  0  0
   11.1302   -8.8417    0.0000 C   0  0  0  0  0  0  0  0  0  0  0  0
   11.1302   -8.0992    0.0000 N   0  0  0  0  0  0  0  0  0  0  0  0
   10.6051  -11.1592    0.0000 C   0  0  0  0  0  0  0  0  0  0  0  0
   11.1302  -10.6342    0.0000 N   0  0  0  0  0  0  0  0  0  0  0  0
   11.1302   -9.8917    0.0000 C   0  0  0  0  0  0  0  0  0  0  0  0
    7.5451   -3.7715    0.0000 C   0  0  0  0  0  0  0  0  0  0  0  0
    6.9020   -3.4003    0.0000 C   0  0  0  0  0  0  0  0  0  0  0  0
    8.7400   -3.7858    0.0000 O   0  0  0  0  0  0  0  0  0  0  0  0
   11.5407   -5.3049    0.0000 C   0  0  0  0  0  0  0  0  0  0  0  0
   11.3765   -4.2677    0.0000 C   0  0  0  0  0  0  0  0  0  0  0  0
   10.3394   -4.1035    0.0000 C   0  0  0  0  0  0  0  0  0  0  0  0
   11.8584   -6.9042    0.0000 O   0  0  0  0  0  0  0  0  0  0  0  0
   10.3877  -12.4268    0.0000 O   0  0  0  0  0  0  0  0  0  0  0  0
    3.9600  -12.4268    0.0000 O   0  0  0  0  0  0  0  0  0  0  0  0
    2.5744  -11.0055    0.0000 C   0  0  0  0  0  0  0  0  0  0  0  0
    1.8572  -10.8133    0.0000 C   0  0  0  0  0  0  0  0  0  0  0  0
    1.3322  -11.3383    0.0000 S   0  0  0  0  0  0  0  0  0  0  0  0
    2.4750   -9.8917    0.0000 O   0  0  0  0  0  0  0  0  0  0  0  0
    2.4750   -8.0992    0.0000 C   0  0  0  0  0  0  0  0  0  0  0  0
    2.1037   -7.4561    0.0000 C   0  0  0  0  0  0  0  0  0  0  0  0
    1.3612   -7.4561    0.0000 C   0  0  0  0  0  0  0  0  0  0  0  0
    2.1037   -6.7136    0.0000 C   0  0  0  0  0  0  0  0  0  0  0  0
    2.4892   -6.9042    0.0000 O   0  0  0  0  0  0  0  0  0  0  0  0
    4.1137   -4.3961    0.0000 C   0  0  0  0  0  0  0  0  0  0  0  0
    4.4850   -3.7530    0.0000 C   0  0  0  0  0  0  0  0  0  0  0  0
    3.3712   -4.3961    0.0000 C   0  0  0  0  0  0  0  0  0  0  0  0
    5.6077   -3.7858    0.0000 O   0  0  0  0  0  0  0  0  0  0  0  0
    6.9020   -2.6578    0.0000 C   0  0  0  0  0  0  0  0  0  0  0  0
    6.2590   -2.2865    0.0000 C   0  0  0  0  0  0  0  0  0  0  0  0
    5.6160   -2.6578    0.0000 C   0  0  0  0  0  0  0  0  0  0  0  0
    5.6160   -3.4003    0.0000 C   0  0  0  0  0  0  0  0  0  0  0  0
    6.2590   -3.7715    0.0000 C   0  0  0  0  0  0  0  0  0  0  0  0
   11.8727   -8.8417    0.0000 C   0  0  0  0  0  0  0  0  0  0  0  0
   12.2439   -8.1986    0.0000 C   0  0  0  0  0  0  0  0  0  0  0  0
   12.9864   -8.1986    0.0000 C   0  0  0  0  0  0  0  0  0  0  0  0
   11.8727   -7.5556    0.0000 C   0  0  0  0  0  0  0  0  0  0  0  0
   11.8727   -9.8917    0.0000 O   0  0  0  0  0  0  0  0  0  0  0  0
   11.1302  -11.6843    0.0000 C   0  0  0  0  0  0  0  0  0  0  0  0
   11.8474  -11.4921    0.0000 C   0  0  0  0  0  0  0  0  0  0  0  0
   12.3724  -12.0171    0.0000 C   0  0  0  0  0  0  0  0  0  0  0  0
   13.0896  -11.8249    0.0000 C   0  0  0  0  0  0  0  0  0  0  0  0
   13.2818  -11.1077    0.0000 C   0  0  0  0  0  0  0  0  0  0  0  0
   12.7567  -10.5827    0.0000 C   0  0  0  0  0  0  0  0  0  0  0  0
   12.0395  -10.7749    0.0000 C   0  0  0  0  0  0  0  0  0  0  0  0
    0.6150  -11.1461    0.0000 C   0  0  0  0  0  0  0  0  0  0  0  0
    7.1614  -13.1816    0.0000 O   0  0  0  0  0  0  0  0  0  0  0  0
    8.1867  -13.1569    0.0000 C   0  0  0  0  0  0  0  0  0  0  0  0
    8.8298  -13.5281    0.0000 C   0  0  0  0  0  0  0  0  0  0  0  0
    7.5437  -13.5281    0.0000 C   0  0  0  0  0  0  0  0  0  0  0  0
    7.5437  -14.2706    0.0000 C   0  0  0  0  0  0  0  0  0  0  0  0
  5  6  1  0  0  0  0
  7  8  1  0  0  0  0
  8  9  1  0  0  0  0
 10 11  1  0  0  0  0
 11 12  1  0  0  0  0
 14 15  1  0  0  0  0
 15 16  1  0  0  0  0
 17 18  1  0  0  0  0
 23 24  1  0  0  0  0
 25 26  1  0  0  0  0
 26 27  1  0  0  0  0
  2  4  1  0  0  0  0
  3 18  1  0  0  0  0
 17 20  1  0  0  0  0
 19 22  1  0  0  0  0
 21 24  1  0  0  0  0
 23 27  1  0  0  0  0
 25 16  1  0  0  0  0
 14 13  1  0  0  0  0
 10  9  1  0  0  0  0
  7  6  1  0  0  0  0
  5  1  1  0  0  0  0
  1  2  1  0  0  0  0
  4  3  1  0  0  0  0
 20 19  1  0  0  0  0
 22 21  1  0  0  0  0
 12 13  1  0  0  0  0
 17 28  1  0  0  0  0
 28 29  1  0  0  0  0
 20 30  2  0  0  0  0
 22 31  1  0  0  0  0
 31 32  1  0  0  0  0
 32 33  1  0  0  0  0
 33 19  1  0  0  0  0
 21 34  2  0  0  0  0
 16 35  2  0  0  0  0
 10 36  2  0  0  0  0
  8 37  1  0  0  0  0
 37 38  1  0  0  0  0
 38 39  1  0  0  0  0
  7 40  2  0  0  0  0
  5 41  1  0  0  0  0
 41 42  1  0  0  0  0
 42 43  1  0  0  0  0
 42 44  1  0  0  0  0
  1 45  2  0  0  0  0
  4 46  1  0  0  0  0
 46 47  1  0  0  0  0
 46 48  1  0  0  0  0
  3 49  2  0  0  0  0
 29 50  2  0  0  0  0
 50 51  1  0  0  0  0
 51 52  2  0  0  0  0
 52 53  1  0  0  0  0
 53 54  2  0  0  0  0
 54 29  1  0  0  0  0
 23 55  1  0  0  0  0
 55 56  1  0  0  0  0
 56 57  1  0  0  0  0
 56 58  1  0  0  0  0
 27 59  2  0  0  0  0
 25 60  1  0  0  0  0
 60 61  1  0  0  0  0
 61 62  2  0  0  0  0
 62 63  1  0  0  0  0
 63 64  2  0  0  0  0
 64 65  1  0  0  0  0
 65 66  2  0  0  0  0
 66 61  1  0  0  0  0
 39 67  1  0  0  0  0
 13 68  2  0  0  0  0
 14 69  1  0  0  0  0
 69 70  1  0  0  0  0
 69 71  1  0  0  0  0
 71 72  1  0  0  0  0
M  END
>  <cdx:fragmentId>
1032

$$$$
