99737.cdx
  Mrv1902 05222410242D          

 36 39  0  0  0  0            999 V2000
    7.7049   -7.0400    0.0000 C   0  0  0  0  0  0  0  0  0  0  0  0
    7.7049   -7.8650    0.0000 C   0  0  0  0  0  0  0  0  0  0  0  0
    8.4194   -8.2775    0.0000 C   0  0  0  0  0  0  0  0  0  0  0  0
    9.1339   -7.8650    0.0000 C   0  0  0  0  0  0  0  0  0  0  0  0
    9.1339   -7.0400    0.0000 C   0  0  0  0  0  0  0  0  0  0  0  0
    8.4194   -6.6275    0.0000 C   0  0  0  0  0  0  0  0  0  0  0  0
    6.9203   -6.7851    0.0000 C   0  0  0  0  0  0  0  0  0  0  0  0
    6.4354   -7.4525    0.0000 C   0  0  0  0  0  0  0  0  0  0  0  0
    6.9203   -8.1199    0.0000 O   0  0  0  0  0  0  0  0  0  0  0  0
    9.8483   -8.2775    0.0000 O   0  0  0  0  0  0  0  0  0  0  0  0
   10.5628   -7.8650    0.0000 C   0  0  0  0  0  0  0  0  0  0  0  0
   10.5628   -7.0400    0.0000 C   0  0  0  0  0  0  0  0  0  0  0  0
    9.8483   -6.6275    0.0000 C   0  0  0  0  0  0  0  0  0  0  0  0
   11.2773   -8.2775    0.0000 O   0  0  0  0  0  0  0  0  0  0  0  0
    8.4194   -5.8025    0.0000 O   0  0  0  0  0  0  0  0  0  0  0  0
    9.1339   -5.3900    0.0000 C   0  0  0  0  0  0  0  0  0  0  0  0
    8.4194   -9.1025    0.0000 O   0  0  0  0  0  0  0  0  0  0  0  0
    7.7049   -9.5150    0.0000 C   0  0  0  0  0  0  0  0  0  0  0  0
    7.7049  -10.3400    0.0000 C   0  0  2  0  0  0  0  0  0  0  0  0
    6.9905  -10.7525    0.0000 C   0  0  0  0  0  0  0  0  0  0  0  0
    6.9905  -11.5775    0.0000 C   0  0  0  0  0  0  0  0  0  0  0  0
    6.2760  -10.3400    0.0000 C   0  0  0  0  0  0  0  0  0  0  0  0
    6.2760  -11.1650    0.0000 O   0  0  0  0  0  0  0  0  0  0  0  0
    8.4194  -10.7525    0.0000 H   0  0  0  0  0  0  0  0  0  0  0  0
    8.4194   -9.9275    0.0000 O   0  0  0  0  0  0  0  0  0  0  0  0
    4.8372   -9.5128    0.0000 C   0  0  2  0  0  0  0  0  0  0  0  0
    4.1224   -9.9247    0.0000 C   0  0  2  0  0  0  0  0  0  0  0  0
    4.1218  -10.7497    0.0000 C   0  0  1  0  0  0  0  0  0  0  0  0
    4.8360  -11.1628    0.0000 C   0  0  2  0  0  0  0  0  0  0  0  0
    5.5507  -10.7508    0.0000 C   0  0  1  0  0  0  0  0  0  0  0  0
    5.5514   -9.9258    0.0000 O   0  0  0  0  0  0  0  0  0  0  0  0
    4.8378   -8.6878    0.0000 C   0  0  0  0  0  0  0  0  0  0  0  0
    3.4070  -11.1617    0.0000 O   0  0  0  0  0  0  0  0  0  0  0  0
    3.4083   -9.5117    0.0000 O   0  0  0  0  0  0  0  0  0  0  0  0
    4.8353  -11.9878    0.0000 O   0  0  0  0  0  0  0  0  0  0  0  0
    4.1237   -8.2747    0.0000 O   0  0  0  0  0  0  0  0  0  0  0  0
  1  2  2  0  0  0  0
  2  3  1  0  0  0  0
  3  4  2  0  0  0  0
  4  5  1  0  0  0  0
  5  6  2  0  0  0  0
  6  1  1  0  0  0  0
  1  7  1  0  0  0  0
  7  8  2  0  0  0  0
  8  9  1  0  0  0  0
  9  2  1  0  0  0  0
  4 10  1  0  0  0  0
 10 11  1  0  0  0  0
 11 12  1  0  0  0  0
 12 13  2  0  0  0  0
 13  5  1  0  0  0  0
 11 14  2  0  0  0  0
  6 15  1  0  0  0  0
 15 16  1  0  0  0  0
  3 17  1  0  0  0  0
 17 18  1  0  0  0  0
 18 19  1  0  0  0  0
 19 20  1  0  0  0  0
 20 21  1  0  0  0  0
 20 22  1  0  0  0  0
 20 23  1  0  0  0  0
 19 24  1  6  0  0  0
 19 25  1  1  0  0  0
 26 27  1  0  0  0  0
 27 28  1  0  0  0  0
 28 29  1  0  0  0  0
 29 30  1  0  0  0  0
 30 31  1  0  0  0  0
 31 26  1  0  0  0  0
 26 32  1  1  0  0  0
 28 33  1  1  0  0  0
 27 34  1  6  0  0  0
 29 35  1  6  0  0  0
 32 36  1  0  0  0  0
 30 23  1  1  0  0  0
M  END
>  <cdx:fragmentId>
5

$$$$
