99733.cdx
  Mrv1902 05222410252D          

 23 27  0  0  0  0            999 V2000
    5.2917   -7.5368    0.0000 O   0  0  0  0  0  0  0  0  0  0  0  0
    7.5045  -10.2674    0.0000 O   0  0  0  0  0  0  0  0  0  0  0  0
    7.4998   -6.3668    0.0000 O   0  0  0  0  0  0  0  0  0  0  0  0
    6.7906   -8.2047    0.0000 C   0  0  1  0  0  0  0  0  0  0  0  0
    7.5047   -9.4424    0.0000 C   0  0  0  0  0  0  0  0  0  0  0  0
    8.2193   -9.0301    0.0000 C   0  0  0  0  0  0  0  0  0  0  0  0
    8.9336   -9.4428    0.0000 C   0  0  0  0  0  0  0  0  0  0  0  0
    9.6482   -9.0305    0.0000 C   0  0  0  0  0  0  0  0  0  0  0  0
    9.6485   -8.2055    0.0000 C   0  0  0  0  0  0  0  0  0  0  0  0
    8.9341   -7.7928    0.0000 C   0  0  0  0  0  0  0  0  0  0  0  0
    8.2195   -8.2051    0.0000 C   0  0  0  0  0  0  0  0  0  0  0  0
    7.5052   -7.7924    0.0000 N   0  0  0  0  0  0  0  0  0  0  0  0
    7.0871   -7.0812    0.0000 C   0  0  0  0  0  0  0  0  0  0  0  0
    6.2666   -7.1672    0.0000 C   0  0  0  0  0  0  0  0  0  0  0  0
    6.0060   -7.9495    0.0000 C   0  0  2  0  0  0  0  0  0  0  0  0
    5.5209   -8.6168    0.0000 C   0  0  0  0  0  0  0  0  0  0  0  0
    4.7004   -8.7028    0.0000 C   0  0  0  0  0  0  0  0  0  0  0  0
    4.3646   -9.4564    0.0000 C   0  0  0  0  0  0  0  0  0  0  0  0
    4.8494  -10.1239    0.0000 C   0  0  0  0  0  0  0  0  0  0  0  0
    5.6699  -10.0380    0.0000 C   0  0  0  0  0  0  0  0  0  0  0  0
    6.0057   -9.2844    0.0000 C   0  0  0  0  0  0  0  0  0  0  0  0
    6.7903   -9.0297    0.0000 N   0  0  0  0  0  0  0  0  0  0  0  0
    7.5505   -8.5259    0.0000 H   0  0  0  0  0  0  0  0  0  0  0  0
 15  1  1  1  0  0  0
  5  2  2  0  0  0  0
 13  3  2  0  0  0  0
 15  4  1  0  0  0  0
 21 16  1  0  0  0  0
 11  6  1  0  0  0  0
  4 12  1  0  0  0  0
 22  4  1  0  0  0  0
 22  5  1  0  0  0  0
  6  5  1  0  0  0  0
  7  6  2  0  0  0  0
  8  7  1  0  0  0  0
  9  8  2  0  0  0  0
 10  9  1  0  0  0  0
 11 10  2  0  0  0  0
 12 11  1  0  0  0  0
 13 12  1  0  0  0  0
 14 13  1  0  0  0  0
 15 14  1  0  0  0  0
 16 15  1  0  0  0  0
 17 16  2  0  0  0  0
 18 17  1  0  0  0  0
 19 18  2  0  0  0  0
 20 19  1  0  0  0  0
 21 20  2  0  0  0  0
 22 21  1  0  0  0  0
  4 23  1  1  0  0  0
M  END
>  <cdx:fragmentId>
5

$$$$
