99739.cdx
  Mrv1902 05222410232D          

 23 25  0  0  0  0            999 V2000
    6.6462   -7.6587    0.0000 C   0  0  0  0  0  0  0  0  0  0  0  0
    6.6462   -8.4838    0.0000 C   0  0  0  0  0  0  0  0  0  0  0  0
    7.3606   -8.8963    0.0000 C   0  0  0  0  0  0  0  0  0  0  0  0
    8.0751   -8.4838    0.0000 C   0  0  0  0  0  0  0  0  0  0  0  0
    8.0751   -7.6587    0.0000 C   0  0  0  0  0  0  0  0  0  0  0  0
    7.3606   -7.2462    0.0000 C   0  0  0  0  0  0  0  0  0  0  0  0
    8.7896   -8.8963    0.0000 C   0  0  0  0  0  0  0  0  0  0  0  0
    9.5041   -8.4838    0.0000 C   0  0  0  0  0  0  0  0  0  0  0  0
    9.5041   -7.6587    0.0000 C   0  0  0  0  0  0  0  0  0  0  0  0
    8.7896   -7.2462    0.0000 O   0  0  0  0  0  0  0  0  0  0  0  0
   10.2185   -7.2462    0.0000 O   0  0  0  0  0  0  0  0  0  0  0  0
    8.7896   -9.7212    0.0000 O   0  0  0  0  0  0  0  0  0  0  0  0
    7.3606   -9.7212    0.0000 O   0  0  0  0  0  0  0  0  0  0  0  0
    5.2261   -6.0145    0.0000 C   0  0  1  0  0  0  0  0  0  0  0  0
    4.5099   -6.4239    0.0000 C   0  0  1  0  0  0  0  0  0  0  0  0
    4.5064   -7.2489    0.0000 C   0  0  2  0  0  0  0  0  0  0  0  0
    5.2191   -7.6645    0.0000 C   0  0  2  0  0  0  0  0  0  0  0  0
    5.9354   -7.2550    0.0000 C   0  0  0  0  0  0  0  0  0  0  0  0
    5.9389   -6.4300    0.0000 O   0  0  0  0  0  0  0  0  0  0  0  0
    3.7972   -6.0084    0.0000 O   0  0  0  0  0  0  0  0  0  0  0  0
    5.2296   -5.1895    0.0000 C   0  0  0  0  0  0  0  0  0  0  0  0
    3.7902   -7.6584    0.0000 O   0  0  0  0  0  0  0  0  0  0  0  0
    5.2156   -8.4895    0.0000 O   0  0  0  0  0  0  0  0  0  0  0  0
  1  2  2  0  0  0  0
  2  3  1  0  0  0  0
  3  4  2  0  0  0  0
  4  5  1  0  0  0  0
  5  6  2  0  0  0  0
  6  1  1  0  0  0  0
  4  7  1  0  0  0  0
  7  8  2  0  0  0  0
  8  9  1  0  0  0  0
  9 10  1  0  0  0  0
 10  5  1  0  0  0  0
  9 11  2  0  0  0  0
  7 12  1  0  0  0  0
  3 13  1  0  0  0  0
 14 15  1  0  0  0  0
 15 16  1  0  0  0  0
 16 17  1  0  0  0  0
 17 18  1  0  0  0  0
 18 19  1  0  0  0  0
 19 14  1  0  0  0  0
 15 20  1  1  0  0  0
 14 21  1  6  0  0  0
 16 22  1  6  0  0  0
 17 23  1  6  0  0  0
 18  1  1  0  0  0  0
M  END
>  <cdx:fragmentId>
5

$$$$
