99736.cdx
  Mrv1902 05222410242D          

 39 42  0  0  0  0            999 V2000
    8.4874   -7.0622    0.0000 C   0  0  0  0  0  0  0  0  0  0  0  0
    8.4874   -6.2372    0.0000 C   0  0  0  0  0  0  0  0  0  0  0  0
    7.7729   -5.8247    0.0000 C   0  0  0  0  0  0  0  0  0  0  0  0
    7.7729   -4.9997    0.0000 O   0  0  0  0  0  0  0  0  0  0  0  0
    7.0584   -6.2372    0.0000 C   0  0  0  0  0  0  0  0  0  0  0  0
    6.3439   -5.8247    0.0000 C   0  0  0  0  0  0  0  0  0  0  0  0
    5.6295   -6.2372    0.0000 C   0  0  0  0  0  0  0  0  0  0  0  0
    5.6295   -7.0622    0.0000 C   0  0  0  0  0  0  0  0  0  0  0  0
    6.3439   -7.4747    0.0000 C   0  0  0  0  0  0  0  0  0  0  0  0
    7.0584   -7.0622    0.0000 C   0  0  0  0  0  0  0  0  0  0  0  0
    7.7729   -7.4747    0.0000 O   0  0  0  0  0  0  0  0  0  0  0  0
    6.3439   -4.9997    0.0000 C   0  0  0  0  0  0  0  0  0  0  0  0
    4.9150   -7.4747    0.0000 O   0  0  0  0  0  0  0  0  0  0  0  0
    4.2005   -7.0622    0.0000 C   0  0  0  0  0  0  0  0  0  0  0  0
    9.2018   -7.4747    0.0000 C   0  0  0  0  0  0  0  0  0  0  0  0
    9.9163   -7.0622    0.0000 C   0  0  0  0  0  0  0  0  0  0  0  0
    9.9163   -6.2372    0.0000 O   0  0  0  0  0  0  0  0  0  0  0  0
   10.6308   -7.4747    0.0000 C   0  0  0  0  0  0  0  0  0  0  0  0
    6.3439   -8.2997    0.0000 C   0  0  2  0  0  0  0  0  0  0  0  0
    5.6295   -8.7122    0.0000 O   0  0  0  0  0  0  0  0  0  0  0  0
    5.6295   -9.5372    0.0000 C   0  0  1  0  0  0  0  0  0  0  0  0
    6.3439   -9.9497    0.0000 C   0  0  2  0  0  0  0  0  0  0  0  0
    7.0584   -9.5372    0.0000 C   0  0  1  0  0  0  0  0  0  0  0  0
    7.0584   -8.7122    0.0000 C   0  0  1  0  0  0  0  0  0  0  0  0
    4.9150   -9.9497    0.0000 C   0  0  0  0  0  0  0  0  0  0  0  0
    7.7729   -9.9497    0.0000 O   0  0  0  0  0  0  0  0  0  0  0  0
    7.7729   -8.2997    0.0000 O   0  0  0  0  0  0  0  0  0  0  0  0
    6.3439  -10.7747    0.0000 O   0  0  0  0  0  0  0  0  0  0  0  0
    4.9150  -10.7747    0.0000 O   0  0  0  0  0  0  0  0  0  0  0  0
    9.2121   -8.3137    0.0000 O   0  0  0  0  0  0  0  0  0  0  0  0
    8.4915   -8.7154    0.0000 C   0  0  0  0  0  0  0  0  0  0  0  0
    8.4790   -9.5403    0.0000 C   0  0  0  0  0  0  0  0  0  0  0  0
    9.1872   -9.9635    0.0000 C   0  0  0  0  0  0  0  0  0  0  0  0
    9.8829  -11.2117    0.0000 C   0  0  0  0  0  0  0  0  0  0  0  0
    9.1747  -10.7884    0.0000 C   0  0  0  0  0  0  0  0  0  0  0  0
    8.4541  -11.1901    0.0000 C   0  0  0  0  0  0  0  0  0  0  0  0
    8.4416  -12.0150    0.0000 C   0  0  0  0  0  0  0  0  0  0  0  0
    9.1498  -12.4382    0.0000 C   0  0  0  0  0  0  0  0  0  0  0  0
    9.8704  -12.0366    0.0000 C   0  0  0  0  0  0  0  0  0  0  0  0
  1  2  2  0  0  0  0
  2  3  1  0  0  0  0
  3  4  2  0  0  0  0
  3  5  1  0  0  0  0
  5  6  1  0  0  0  0
  6  7  2  0  0  0  0
  7  8  1  0  0  0  0
  8  9  2  0  0  0  0
  9 10  1  0  0  0  0
  5 10  2  0  0  0  0
 10 11  1  0  0  0  0
  1 11  1  0  0  0  0
  6 12  1  0  0  0  0
 13 14  1  0  0  0  0
  8 13  1  0  0  0  0
 15 16  1  0  0  0  0
 16 17  2  0  0  0  0
 16 18  1  0  0  0  0
  1 15  1  0  0  0  0
 19  9  1  1  0  0  0
 19 20  1  0  0  0  0
 20 21  1  0  0  0  0
 21 22  1  0  0  0  0
 22 23  1  0  0  0  0
 23 24  1  0  0  0  0
 24 19  1  0  0  0  0
 21 25  1  1  0  0  0
 23 26  1  1  0  0  0
 24 27  1  6  0  0  0
 22 28  1  6  0  0  0
 25 29  1  0  0  0  0
 31 30  2  0  0  0  0
 32 31  1  0  0  0  0
 33 32  2  0  0  0  0
 35 33  1  0  0  0  0
 34 39  1  0  0  0  0
 35 34  2  0  0  0  0
 36 35  1  0  0  0  0
 37 36  2  0  0  0  0
 38 37  1  0  0  0  0
 39 38  2  0  0  0  0
 31 27  1  0  0  0  0
M  END
>  <cdx:fragmentId>
5

$$$$
