99747.cdx
  Mrv1902 05222410282D          

 21 23  0  0  0  0            999 V2000
    5.3674   -7.3012    0.0000 C   0  0  0  0  0  0  0  0  0  0  0  0
    5.3674   -8.1263    0.0000 C   0  0  0  0  0  0  0  0  0  0  0  0
    6.0819   -8.5388    0.0000 C   0  0  1  0  0  0  0  0  0  0  0  0
    6.7964   -8.1263    0.0000 C   0  0  1  0  0  0  0  0  0  0  0  0
    6.7964   -7.3012    0.0000 C   0  0  1  0  0  0  0  0  0  0  0  0
    6.0819   -6.8888    0.0000 C   0  0  2  0  0  0  0  0  0  0  0  0
    7.5108   -8.5388    0.0000 C   0  0  0  0  0  0  0  0  0  0  0  0
    8.2253   -8.1263    0.0000 C   0  0  1  0  0  0  0  0  0  0  0  0
    8.2253   -7.3012    0.0000 C   0  0  1  0  0  0  0  0  0  0  0  0
    7.5108   -6.8888    0.0000 C   0  0  0  0  0  0  0  0  0  0  0  0
    6.0819   -9.3637    0.0000 C   0  0  0  0  0  0  0  0  0  0  0  0
    8.9398   -6.8888    0.0000 O   0  0  0  0  0  0  0  0  0  0  0  0
    6.7925   -6.1600    0.0000 C   0  0  0  0  0  0  0  0  0  0  0  0
    6.3800   -5.4455    0.0000 C   0  0  0  0  0  0  0  0  0  0  0  0
    7.2050   -5.4455    0.0000 C   0  0  0  0  0  0  0  0  0  0  0  0
    6.7964   -6.4763    0.0000 C   0  0  0  0  0  0  0  0  0  0  0  0
    5.6694   -6.1743    0.0000 O   0  0  0  0  0  0  0  0  0  0  0  0
    6.7964   -8.9513    0.0000 H   0  0  0  0  0  0  0  0  0  0  0  0
    9.6543   -7.3012    0.0000 C   0  0  0  0  0  0  0  0  0  0  0  0
   10.3687   -6.8888    0.0000 C   0  0  0  0  0  0  0  0  0  0  0  0
    9.6543   -8.1262    0.0000 O   0  0  0  0  0  0  0  0  0  0  0  0
  1  2  1  0  0  0  0
  2  3  1  0  0  0  0
  3  4  1  0  0  0  0
  4  5  1  0  0  0  0
  5  6  1  0  0  0  0
  6  1  1  0  0  0  0
  4  7  1  0  0  0  0
  7  8  1  0  0  0  0
  8  9  1  0  0  0  0
  9 10  1  0  0  0  0
 10  5  1  0  0  0  0
  3 11  1  1  0  0  0
  9 12  1  1  0  0  0
  6 13  1  1  0  0  0
  8 13  1  1  0  0  0
 13 14  1  0  0  0  0
 13 15  1  0  0  0  0
  5 16  1  6  0  0  0
  6 17  1  6  0  0  0
  4 18  1  6  0  0  0
 12 19  1  0  0  0  0
 19 20  1  0  0  0  0
 19 21  2  0  0  0  0
M  END
>  <cdx:fragmentId>
5

$$$$
