99748.cdx
  Mrv1902 05222410192D          

 40 46  0  0  0  0            999 V2000
    5.9174   -8.2912    0.0000 C   0  0  1  0  0  0  0  0  0  0  0  0
    5.9174   -9.1162    0.0000 C   0  0  0  0  0  0  0  0  0  0  0  0
    6.6319   -9.5287    0.0000 C   0  0  1  0  0  0  0  0  0  0  0  0
    7.3464   -9.1162    0.0000 C   0  0  2  0  0  0  0  0  0  0  0  0
    7.3464   -8.2912    0.0000 C   0  0  0  0  0  0  0  0  0  0  0  0
    6.6319   -7.8788    0.0000 C   0  0  0  0  0  0  0  0  0  0  0  0
    8.0608   -9.5287    0.0000 C   0  0  0  0  0  0  0  0  0  0  0  0
    8.7753   -9.1162    0.0000 C   0  0  2  0  0  0  0  0  0  0  0  0
    8.7753   -8.2912    0.0000 C   0  0  0  0  0  0  0  0  0  0  0  0
    8.0608   -7.8788    0.0000 C   0  0  1  0  0  0  0  0  0  0  0  0
    9.4898   -7.8788    0.0000 C   0  0  0  0  0  0  0  0  0  0  0  0
    9.4898   -7.0537    0.0000 C   0  0  0  0  0  0  0  0  0  0  0  0
    8.7753   -6.6413    0.0000 C   0  0  0  0  0  0  0  0  0  0  0  0
    8.0608   -7.0537    0.0000 C   0  0  1  0  0  0  0  0  0  0  0  0
   10.2043   -6.6413    0.0000 C   0  0  0  0  0  0  0  0  0  0  0  0
    7.0444  -10.2432    0.0000 C   0  0  0  0  0  0  0  0  0  0  0  0
    6.2194  -10.2432    0.0000 C   0  0  1  0  0  0  0  0  0  0  0  0
    6.6319  -10.9577    0.0000 O   0  0  0  0  0  0  0  0  0  0  0  0
    5.2030   -7.8788    0.0000 O   0  0  0  0  0  0  0  0  0  0  0  0
    6.6324   -8.4145    0.0000 N   0  3  0  0  0  0  0  0  0  0  0  0
    6.0491   -7.8311    0.0000 C   0  0  0  0  0  0  0  0  0  0  0  0
    7.3464   -9.9413    0.0000 H   0  0  0  0  0  0  0  0  0  0  0  0
    9.4898   -9.5287    0.0000 H   0  0  0  0  0  0  0  0  0  0  0  0
    8.0608   -8.7037    0.0000 H   0  0  0  0  0  0  0  0  0  0  0  0
    8.5618   -7.4944    0.0000 C   0  0  0  0  0  0  0  0  0  0  0  0
    7.3464   -6.6413    0.0000 O   0  0  0  0  0  0  0  0  0  0  0  0
    7.3793   -7.5219    0.0000 C   0  0  0  0  0  0  0  0  0  0  0  0
    8.3628   -5.9268    0.0000 C   0  0  2  0  0  0  0  0  0  0  0  0
    8.7753   -5.2123    0.0000 H   0  0  0  0  0  0  0  0  0  0  0  0
    7.5540   -5.7640    0.0000 O   0  0  0  0  0  0  0  0  0  0  0  0
    6.8396   -6.1765    0.0000 C   0  0  0  0  0  0  0  0  0  0  0  0
    6.1251   -5.7640    0.0000 C   0  0  1  0  0  0  0  0  0  0  0  0
    6.8396   -7.0015    0.0000 O   0  0  0  0  0  0  0  0  0  0  0  0
    5.4106   -6.1765    0.0000 C   0  0  0  0  0  0  0  0  0  0  0  0
    6.1251   -4.9390    0.0000 C   0  0  0  0  0  0  0  0  0  0  0  0
    5.4106   -7.0015    0.0000 C   0  0  0  0  0  0  0  0  0  0  0  0
    4.4885   -8.2912    0.0000 C   0  0  0  0  0  0  0  0  0  0  0  0
    3.7740   -7.8788    0.0000 O   0  0  0  0  0  0  0  0  0  0  0  0
    4.4885   -9.1162    0.0000 C   0  0  0  0  0  0  0  0  0  0  0  0
    3.7740   -9.5287    0.0000 C   0  0  0  0  0  0  0  0  0  0  0  0
  1  2  1  0  0  0  0
  2  3  1  0  0  0  0
  3  4  1  0  0  0  0
  5  6  1  0  0  0  0
  6  1  1  0  0  0  0
  4  7  1  0  0  0  0
  7  8  1  0  0  0  0
  8  9  1  0  0  0  0
  9 10  1  0  0  0  0
 10  5  1  0  0  0  0
  9 11  1  0  0  0  0
 11 12  1  0  0  0  0
 12 13  1  0  0  0  0
 13 14  1  0  0  0  0
 14 10  1  0  0  0  0
 12 15  2  0  0  0  0
  3 16  1  1  0  0  0
  3 17  1  0  0  0  0
 17 18  1  1  0  0  0
  1 19  1  6  0  0  0
 17 20  1  0  0  0  0
 20 21  1  0  0  0  0
 20  7  1  0  0  0  0
  4 22  1  1  0  0  0
  8 23  1  1  0  0  0
 10 24  1  1  0  0  0
  9 25  1  0  0  0  0
 14 26  1  6  0  0  0
 25 27  1  0  0  0  0
 20 27  1  0  0  0  0
  5 27  1  0  0  0  0
 13 28  1  0  0  0  0
 28 25  1  0  0  0  0
 28 29  1  0  0  0  0
 28 30  1  6  0  0  0
 30 31  1  0  0  0  0
 31 32  1  0  0  0  0
 31 33  2  0  0  0  0
 32 34  1  0  0  0  0
 32 35  1  1  0  0  0
 34 36  1  0  0  0  0
  5  4  1  0  0  0  0
 19 37  1  0  0  0  0
 37 38  2  0  0  0  0
 37 39  1  0  0  0  0
 39 40  1  0  0  0  0
M  CHG  1  20   1
M  END
>  <cdx:fragmentId>
5

$$$$
