99745.cdx
  Mrv1902 05222410272D          

 28 30  0  0  0  0            999 V2000
    5.6389   -8.5382    0.0000 O   0  0  0  0  0  0  0  0  0  0  0  0
    6.3534   -8.1257    0.0000 C   0  0  0  0  0  0  0  0  0  0  0  0
   10.6402   -7.3007    0.0000 C   0  0  0  0  0  0  0  0  0  0  0  0
   11.3547   -6.8882    0.0000 C   0  0  0  0  0  0  0  0  0  0  0  0
   12.0692   -7.3007    0.0000 C   0  0  0  0  0  0  0  0  0  0  0  0
   12.0692   -8.1257    0.0000 C   0  0  0  0  0  0  0  0  0  0  0  0
   11.3547   -8.5382    0.0000 C   0  0  0  0  0  0  0  0  0  0  0  0
   10.6402   -8.1257    0.0000 C   0  0  0  0  0  0  0  0  0  0  0  0
    9.9258   -8.5382    0.0000 C   0  0  0  0  0  0  0  0  0  0  0  0
    9.2113   -8.1257    0.0000 O   0  0  0  0  0  0  0  0  0  0  0  0
    9.2113   -9.7757    0.0000 O   0  0  0  0  0  0  0  0  0  0  0  0
    7.7823  -10.6007    0.0000 O   0  0  0  0  0  0  0  0  0  0  0  0
    6.3534   -9.7757    0.0000 O   0  0  0  0  0  0  0  0  0  0  0  0
    8.4968   -8.5382    0.0000 C   0  0  1  0  0  0  0  0  0  0  0  0
    8.4968   -9.3632    0.0000 C   0  0  1  0  0  0  0  0  0  0  0  0
    7.7823   -9.7757    0.0000 C   0  0  2  0  0  0  0  0  0  0  0  0
    7.0679   -9.3632    0.0000 C   0  0  1  0  0  0  0  0  0  0  0  0
    7.0679   -8.5382    0.0000 C   0  0  2  0  0  0  0  0  0  0  0  0
    7.7823   -8.1257    0.0000 O   0  0  0  0  0  0  0  0  0  0  0  0
    5.3774   -7.0954    0.0000 O   0  0  0  0  0  0  0  0  0  0  0  0
    4.7015   -6.6224    0.0000 C   0  0  0  0  0  0  0  0  0  0  0  0
    4.0427   -7.1191    0.0000 C   0  0  2  0  0  0  0  0  0  0  0  0
    4.3116   -7.8991    0.0000 C   0  0  2  0  0  0  0  0  0  0  0  0
    5.1365   -7.8845    0.0000 C   0  0  2  0  0  0  0  0  0  0  0  0
    3.8386   -8.5751    0.0000 O   0  0  0  0  0  0  0  0  0  0  0  0
    3.2952   -7.4680    0.0000 O   0  0  0  0  0  0  0  0  0  0  0  0
    3.3668   -6.6462    0.0000 C   0  0  0  0  0  0  0  0  0  0  0  0
    3.4384   -5.8243    0.0000 O   0  0  0  0  0  0  0  0  0  0  0  0
 18  2  1  1  0  0  0
  2  1  1  0  0  0  0
 14 10  1  1  0  0  0
  9  8  1  0  0  0  0
  8  3  2  0  0  0  0
  4  3  1  0  0  0  0
  5  4  2  0  0  0  0
  6  5  1  0  0  0  0
  7  6  2  0  0  0  0
  8  7  1  0  0  0  0
 10  9  1  0  0  0  0
 15 11  1  6  0  0  0
 16 12  1  1  0  0  0
 17 13  1  6  0  0  0
 19 14  1  0  0  0  0
 15 14  1  0  0  0  0
 16 15  1  0  0  0  0
 17 16  1  0  0  0  0
 18 17  1  0  0  0  0
 19 18  1  0  0  0  0
 20 21  1  0  0  0  0
 21 22  1  0  0  0  0
 22 23  1  0  0  0  0
 23 24  1  0  0  0  0
 24 20  1  0  0  0  0
 23 25  1  6  0  0  0
 22 26  1  6  0  0  0
 22 27  1  0  0  0  0
 27 28  1  0  0  0  0
 24  1  1  1  0  0  0
M  END
>  <cdx:fragmentId>
5

$$$$
