99744.cdx
  Mrv1902 05222410272D          

 30 33  0  0  0  0            999 V2000
    5.7336   -6.2980    0.0000 C   0  0  0  0  0  0  0  0  0  0  0  0
    5.7336   -7.1230    0.0000 C   0  0  0  0  0  0  0  0  0  0  0  0
    6.4481   -7.5355    0.0000 C   0  0  0  0  0  0  0  0  0  0  0  0
    7.1626   -7.1230    0.0000 C   0  0  0  0  0  0  0  0  0  0  0  0
    7.8770   -7.5355    0.0000 C   0  0  0  0  0  0  0  0  0  0  0  0
    8.5915   -7.1230    0.0000 C   0  0  0  0  0  0  0  0  0  0  0  0
    8.5915   -6.2980    0.0000 C   0  0  0  0  0  0  0  0  0  0  0  0
    7.8770   -5.8855    0.0000 C   0  0  0  0  0  0  0  0  0  0  0  0
    7.1626   -6.2980    0.0000 C   0  0  0  0  0  0  0  0  0  0  0  0
    6.4481   -5.8855    0.0000 O   0  0  0  0  0  0  0  0  0  0  0  0
    9.3761   -6.0431    0.0000 O   0  0  0  0  0  0  0  0  0  0  0  0
    9.3761   -7.3780    0.0000 C   0  0  0  0  0  0  0  0  0  0  0  0
    9.8611   -6.7105    0.0000 C   0  0  2  0  0  0  0  0  0  0  0  0
    5.0192   -5.8855    0.0000 O   0  0  0  0  0  0  0  0  0  0  0  0
   10.6861   -6.7105    0.0000 C   0  0  0  0  0  0  0  0  0  0  0  0
   11.5111   -6.7105    0.0000 O   0  0  0  0  0  0  0  0  0  0  0  0
    6.4481   -8.3605    0.0000 O   0  0  0  0  0  0  0  0  0  0  0  0
    4.2947   -8.7672    0.0000 C   0  0  2  0  0  0  0  0  0  0  0  0
    4.2947   -9.5922    0.0000 C   0  0  2  0  0  0  0  0  0  0  0  0
    5.0091  -10.0047    0.0000 C   0  0  1  0  0  0  0  0  0  0  0  0
    5.7236   -9.5922    0.0000 C   0  0  2  0  0  0  0  0  0  0  0  0
    5.7236   -8.7672    0.0000 C   0  0  1  0  0  0  0  0  0  0  0  0
    5.0091   -8.3547    0.0000 O   0  0  0  0  0  0  0  0  0  0  0  0
    3.5802   -8.3547    0.0000 C   0  0  0  0  0  0  0  0  0  0  0  0
    5.0091  -10.8297    0.0000 O   0  0  0  0  0  0  0  0  0  0  0  0
    3.5802  -10.0047    0.0000 O   0  0  0  0  0  0  0  0  0  0  0  0
    6.4381  -10.0047    0.0000 O   0  0  0  0  0  0  0  0  0  0  0  0
    2.8657   -8.7672    0.0000 O   0  0  0  0  0  0  0  0  0  0  0  0
   10.6861   -7.5355    0.0000 C   0  0  0  0  0  0  0  0  0  0  0  0
   10.6861   -5.8855    0.0000 C   0  0  0  0  0  0  0  0  0  0  0  0
  1  2  1  0  0  0  0
  2  3  2  0  0  0  0
  3  4  1  0  0  0  0
  4  5  2  0  0  0  0
  5  6  1  0  0  0  0
  6  7  2  0  0  0  0
  7  8  1  0  0  0  0
  8  9  2  0  0  0  0
  4  9  1  0  0  0  0
  9 10  1  0  0  0  0
  1 10  1  0  0  0  0
 12 13  1  0  0  0  0
 11 13  1  0  0  0  0
 12  6  1  0  0  0  0
 11  7  1  0  0  0  0
  1 14  2  0  0  0  0
 15 16  1  0  0  0  0
 13 15  1  1  0  0  0
  3 17  1  0  0  0  0
 18 19  1  0  0  0  0
 19 20  1  0  0  0  0
 20 21  1  0  0  0  0
 21 22  1  0  0  0  0
 22 23  1  0  0  0  0
 23 18  1  0  0  0  0
 18 24  1  1  0  0  0
 20 25  1  1  0  0  0
 19 26  1  6  0  0  0
 21 27  1  6  0  0  0
 24 28  1  0  0  0  0
 22 17  1  1  0  0  0
 15 29  1  0  0  0  0
 15 30  1  0  0  0  0
M  END
>  <cdx:fragmentId>
5

$$$$
