99741.cdx
  Mrv1902 05222410272D          

 74 80  0  0  0  0            999 V2000
    6.0635  -11.8870    0.0000 O   0  0  0  0  0  0  0  0  0  0  0  0
    7.4930  -11.0630    0.0000 O   0  0  0  0  0  0  0  0  0  0  0  0
    8.9214  -11.0640    0.0000 O   0  0  0  0  0  0  0  0  0  0  0  0
    8.9214  -11.8890    0.0000 C   0  0  0  0  0  0  0  0  0  0  0  0
    4.6328  -14.3610    0.0000 O   0  0  0  0  0  0  0  0  0  0  0  0
    3.2045  -13.5350    0.0000 O   0  0  0  0  0  0  0  0  0  0  0  0
    3.2056  -11.8850    0.0000 O   0  0  0  0  0  0  0  0  0  0  0  0
    3.9210  -10.6480    0.0000 O   0  0  0  0  0  0  0  0  0  0  0  0
    4.6351  -11.0610    0.0000 C   0  0  0  0  0  0  0  0  0  0  0  0
    4.6346  -11.8860    0.0000 C   0  0  2  0  0  0  0  0  0  0  0  0
    3.9198  -12.2980    0.0000 C   0  0  2  0  0  0  0  0  0  0  0  0
    3.9192  -13.1230    0.0000 C   0  0  1  0  0  0  0  0  0  0  0  0
    4.6334  -13.5360    0.0000 C   0  0  2  0  0  0  0  0  0  0  0  0
    5.3482  -13.1240    0.0000 C   0  0  1  0  0  0  0  0  0  0  0  0
    5.3487  -12.2990    0.0000 O   0  0  0  0  0  0  0  0  0  0  0  0
    6.0623  -13.5370    0.0000 O   0  0  0  0  0  0  0  0  0  0  0  0
    8.2066  -12.3010    0.0000 C   0  0  2  0  0  0  0  0  0  0  0  0
    7.4924  -11.8880    0.0000 C   0  0  2  0  0  0  0  0  0  0  0  0
    6.7777  -12.3000    0.0000 C   0  0  1  0  0  0  0  0  0  0  0  0
    6.7771  -13.1250    0.0000 C   0  0  2  0  0  0  0  0  0  0  0  0
    7.4913  -13.5380    0.0000 C   0  0  1  0  0  0  0  0  0  0  0  0
    8.2060  -13.1260    0.0000 O   0  0  0  0  0  0  0  0  0  0  0  0
    7.4889  -16.8380    0.0000 O   0  0  0  0  0  0  0  0  0  0  0  0
   12.4929  -13.1291    0.0000 O   0  0  0  0  0  0  0  0  0  0  0  0
   10.3492  -13.5401    0.0000 C   0  0  0  0  0  0  0  0  0  0  0  0
   11.0639  -13.1281    0.0000 C   0  0  0  0  0  0  0  0  0  0  0  0
   11.7781  -13.5411    0.0000 C   0  0  0  0  0  0  0  0  0  0  0  0
   11.7775  -14.3661    0.0000 C   0  0  0  0  0  0  0  0  0  0  0  0
   11.0628  -14.7781    0.0000 C   0  0  0  0  0  0  0  0  0  0  0  0
   10.3486  -14.3651    0.0000 C   0  0  0  0  0  0  0  0  0  0  0  0
    5.3470  -14.7740    0.0000 C   0  0  0  0  0  0  0  0  0  0  0  0
    6.0617  -14.3620    0.0000 O   0  0  0  0  0  0  0  0  0  0  0  0
    8.9179  -16.8390    0.0000 O   0  0  0  0  0  0  0  0  0  0  0  0
    8.9196  -14.3640    0.0000 O   0  0  0  0  0  0  0  0  0  0  0  0
    8.2049  -14.7760    0.0000 C   0  0  0  0  0  0  0  0  0  0  0  0
    7.4907  -14.3630    0.0000 C   0  0  0  0  0  0  0  0  0  0  0  0
    6.7759  -14.7750    0.0000 C   0  0  0  0  0  0  0  0  0  0  0  0
    6.7753  -15.6000    0.0000 C   0  0  0  0  0  0  0  0  0  0  0  0
    7.4895  -16.0130    0.0000 C   0  0  0  0  0  0  0  0  0  0  0  0
    8.2043  -15.6010    0.0000 C   0  0  0  0  0  0  0  0  0  0  0  0
    8.9185  -16.0140    0.0000 C   0  0  0  0  0  0  0  0  0  0  0  0
    9.6332  -15.6020    0.0000 C   0  0  0  0  0  0  0  0  0  0  0  0
    9.6338  -14.7770    0.0000 C   0  0  0  0  0  0  0  0  0  0  0  0
    8.2057  -13.9505    0.0000 H   0  0  0  0  0  0  0  0  0  0  0  0
    6.0642   -8.5883    0.0000 C   0  0  0  0  0  0  0  0  0  0  0  0
    6.7797   -8.1760    0.0000 C   0  0  0  0  0  0  0  0  0  0  0  0
    6.7809   -7.3510    0.0000 C   0  0  0  0  0  0  0  0  0  0  0  0
    6.0666   -6.9368    0.0000 C   0  0  0  0  0  0  0  0  0  0  0  0
    5.3520   -7.3490    0.0000 C   0  0  0  0  0  0  0  0  0  0  0  0
    5.3517   -8.1740    0.0000 C   0  0  0  0  0  0  0  0  0  0  0  0
    4.6369   -8.5860    0.0000 C   0  0  0  0  0  0  0  0  0  0  0  0
    3.2074   -9.4100    0.0000 O   0  0  0  0  0  0  0  0  0  0  0  0
    4.6363   -9.4110    0.0000 C   0  0  0  0  0  0  0  0  0  0  0  0
    3.9216   -9.8230    0.0000 C   0  0  0  0  0  0  0  0  0  0  0  0
    9.6359  -10.6515    0.0000 C   0  0  0  0  0  0  0  0  0  0  0  0
    9.6359   -9.8265    0.0000 C   0  0  0  0  0  0  0  0  0  0  0  0
   10.3503  -11.0640    0.0000 O   0  0  0  0  0  0  0  0  0  0  0  0
   10.3503   -9.4140    0.0000 C   0  0  0  0  0  0  0  0  0  0  0  0
   10.3503   -8.5890    0.0000 C   0  0  0  0  0  0  0  0  0  0  0  0
   11.0648   -8.1765    0.0000 C   0  0  0  0  0  0  0  0  0  0  0  0
   11.0648   -7.3515    0.0000 C   0  0  0  0  0  0  0  0  0  0  0  0
   10.3503   -6.9390    0.0000 C   0  0  0  0  0  0  0  0  0  0  0  0
    9.6359   -7.3515    0.0000 C   0  0  0  0  0  0  0  0  0  0  0  0
    9.6359   -8.1765    0.0000 C   0  0  0  0  0  0  0  0  0  0  0  0
    7.4961   -6.9397    0.0000 O   0  0  0  0  0  0  0  0  0  0  0  0
   10.3503   -6.1140    0.0000 O   0  0  0  0  0  0  0  0  0  0  0  0
   11.7793   -6.9390    0.0000 O   0  0  0  0  0  0  0  0  0  0  0  0
    6.0675   -6.1118    0.0000 O   0  0  0  0  0  0  0  0  0  0  0  0
   11.7793   -6.1140    0.0000 C   0  0  0  0  0  0  0  0  0  0  0  0
    6.7820   -5.6993    0.0000 C   0  0  0  0  0  0  0  0  0  0  0  0
    8.9214   -6.9390    0.0000 O   0  0  0  0  0  0  0  0  0  0  0  0
    8.9214   -6.1140    0.0000 C   0  0  0  0  0  0  0  0  0  0  0  0
    7.4937   -8.5894    0.0000 O   0  0  0  0  0  0  0  0  0  0  0  0
    8.2087   -8.1777    0.0000 C   0  0  0  0  0  0  0  0  0  0  0  0
 21 36  1  0  0  0  0
 19  1  1  1  0  0  0
 18  2  1  6  0  0  0
 17  4  1  1  0  0  0
  4  3  1  0  0  0  0
 20 16  1  6  0  0  0
 14 16  1  1  0  0  0
 13  5  1  6  0  0  0
 12  6  1  1  0  0  0
 11  7  1  6  0  0  0
 10  9  1  1  0  0  0
  9  8  1  0  0  0  0
 15 10  1  0  0  0  0
 11 10  1  0  0  0  0
 12 11  1  0  0  0  0
 13 12  1  0  0  0  0
 14 13  1  0  0  0  0
 15 14  1  0  0  0  0
 22 17  1  0  0  0  0
 18 17  1  0  0  0  0
 19 18  1  0  0  0  0
 20 19  1  0  0  0  0
 21 20  1  0  0  0  0
 22 21  1  0  0  0  0
 39 23  1  0  0  0  0
 43 30  1  0  0  0  0
 27 24  1  0  0  0  0
 30 25  2  0  0  0  0
 26 25  1  0  0  0  0
 27 26  2  0  0  0  0
 28 27  1  0  0  0  0
 29 28  2  0  0  0  0
 30 29  1  0  0  0  0
 37 32  1  0  0  0  0
 32 31  1  0  0  0  0
 41 33  2  0  0  0  0
 43 34  1  0  0  0  0
 35 34  1  0  0  0  0
 40 35  2  0  0  0  0
 36 35  1  0  0  0  0
 37 36  2  0  0  0  0
 38 37  1  0  0  0  0
 39 38  2  0  0  0  0
 40 39  1  0  0  0  0
 41 40  1  0  0  0  0
 42 41  1  0  0  0  0
 43 42  2  0  0  0  0
 21 44  1  6  0  0  0
 45 50  1  0  0  0  0
  8 54  1  0  0  0  0
 46 45  2  0  0  0  0
 47 46  1  0  0  0  0
 48 47  2  0  0  0  0
 49 48  1  0  0  0  0
 50 49  2  0  0  0  0
 51 50  1  0  0  0  0
 53 51  2  0  0  0  0
 54 52  2  0  0  0  0
 54 53  1  0  0  0  0
  3 55  1  0  0  0  0
 55 56  1  0  0  0  0
 55 57  2  0  0  0  0
 56 58  2  0  0  0  0
 58 59  1  0  0  0  0
 59 60  2  0  0  0  0
 60 61  1  0  0  0  0
 61 62  2  0  0  0  0
 62 63  1  0  0  0  0
 63 64  2  0  0  0  0
 64 59  1  0  0  0  0
 47 65  1  0  0  0  0
 62 66  1  0  0  0  0
 61 67  1  0  0  0  0
 48 68  1  0  0  0  0
 67 69  1  0  0  0  0
 68 70  1  0  0  0  0
 63 71  1  0  0  0  0
 71 72  1  0  0  0  0
 46 73  1  0  0  0  0
 73 74  1  0  0  0  0
M  END
>  <cdx:fragmentId>
81675

$$$$
