99753.cdx
  Mrv1902 05222410282D          

 30 32  0  0  0  0            999 V2000
    4.3637   -8.1675    0.0000 C   0  0  0  0  0  0  0  0  0  0  0  0
    4.3637   -8.9925    0.0000 C   0  0  0  0  0  0  0  0  0  0  0  0
    5.0781   -9.4050    0.0000 C   0  0  0  0  0  0  0  0  0  0  0  0
    5.7926   -8.9925    0.0000 C   0  0  0  0  0  0  0  0  0  0  0  0
    5.7926   -8.1675    0.0000 C   0  0  0  0  0  0  0  0  0  0  0  0
    5.0781   -7.7550    0.0000 C   0  0  0  0  0  0  0  0  0  0  0  0
    6.5071   -7.7550    0.0000 C   0  0  0  0  0  0  0  0  0  0  0  0
    7.2608   -8.0906    0.0000 O   0  0  0  0  0  0  0  0  0  0  0  0
    7.8128   -7.4775    0.0000 C   0  0  0  0  0  0  0  0  0  0  0  0
    7.4003   -6.7630    0.0000 C   0  0  0  0  0  0  0  0  0  0  0  0
    6.5933   -6.9345    0.0000 C   0  0  0  0  0  0  0  0  0  0  0  0
    8.6333   -7.5637    0.0000 C   0  0  0  0  0  0  0  0  0  0  0  0
    8.9688   -8.3174    0.0000 C   0  0  0  0  0  0  0  0  0  0  0  0
    9.7893   -8.4036    0.0000 C   0  0  0  0  0  0  0  0  0  0  0  0
   10.2742   -7.7362    0.0000 C   0  0  0  0  0  0  0  0  0  0  0  0
    9.9387   -6.9825    0.0000 C   0  0  0  0  0  0  0  0  0  0  0  0
    9.1182   -6.8963    0.0000 C   0  0  0  0  0  0  0  0  0  0  0  0
    3.6492   -7.7550    0.0000 O   0  0  0  0  0  0  0  0  0  0  0  0
    3.6492   -6.9300    0.0000 C   0  0  0  0  0  0  0  0  0  0  0  0
    3.6492   -9.4050    0.0000 O   0  0  0  0  0  0  0  0  0  0  0  0
    2.9347   -8.9925    0.0000 C   0  0  0  0  0  0  0  0  0  0  0  0
    5.0781  -10.2300    0.0000 O   0  0  0  0  0  0  0  0  0  0  0  0
    5.7926  -10.6425    0.0000 C   0  0  0  0  0  0  0  0  0  0  0  0
   11.0947   -7.8224    0.0000 O   0  0  0  0  0  0  0  0  0  0  0  0
   10.4236   -6.3151    0.0000 O   0  0  0  0  0  0  0  0  0  0  0  0
   10.0880   -5.5614    0.0000 C   0  0  0  0  0  0  0  0  0  0  0  0
   10.1249   -9.1573    0.0000 O   0  0  0  0  0  0  0  0  0  0  0  0
    9.6400   -9.8247    0.0000 C   0  0  0  0  0  0  0  0  0  0  0  0
    5.9802   -6.3825    0.0000 C   0  0  0  0  0  0  0  0  0  0  0  0
    7.7359   -6.0093    0.0000 C   0  0  0  0  0  0  0  0  0  0  0  0
  1  2  2  0  0  0  0
  2  3  1  0  0  0  0
  3  4  2  0  0  0  0
  4  5  1  0  0  0  0
  5  6  2  0  0  0  0
  6  1  1  0  0  0  0
  5  7  1  0  0  0  0
  7  8  1  0  0  0  0
  8  9  1  0  0  0  0
  9 10  1  0  0  0  0
 10 11  1  0  0  0  0
 11  7  1  0  0  0  0
  9 12  1  0  0  0  0
 12 13  2  0  0  0  0
 13 14  1  0  0  0  0
 14 15  2  0  0  0  0
 15 16  1  0  0  0  0
 16 17  2  0  0  0  0
 17 12  1  0  0  0  0
  1 18  1  0  0  0  0
 18 19  1  0  0  0  0
  2 20  1  0  0  0  0
 20 21  1  0  0  0  0
  3 22  1  0  0  0  0
 22 23  1  0  0  0  0
 15 24  1  0  0  0  0
 16 25  1  0  0  0  0
 25 26  1  0  0  0  0
 14 27  1  0  0  0  0
 27 28  1  0  0  0  0
 11 29  1  0  0  0  0
 10 30  1  0  0  0  0
M  END
>  <cdx:fragmentId>
5

$$$$
