99758.cdx
  Mrv1902 05222410192D          

 43 46  0  0  0  0            999 V2000
    8.4133   -9.9085    0.0000 C   0  0  0  0  0  0  0  0  0  0  0  0
    8.4133  -10.7335    0.0000 C   0  0  0  0  0  0  0  0  0  0  0  0
    9.1277  -11.1460    0.0000 C   0  0  0  0  0  0  0  0  0  0  0  0
    9.1277  -11.9710    0.0000 C   0  0  0  0  0  0  0  0  0  0  0  0
    8.4133  -12.3835    0.0000 C   0  0  0  0  0  0  0  0  0  0  0  0
    7.6988  -11.9710    0.0000 C   0  0  0  0  0  0  0  0  0  0  0  0
    7.6988  -11.1460    0.0000 C   0  0  0  0  0  0  0  0  0  0  0  0
    7.6988   -9.4960    0.0000 O   0  0  0  0  0  0  0  0  0  0  0  0
    9.1277   -9.4960    0.0000 O   0  0  0  0  0  0  0  0  0  0  0  0
    9.8422  -12.3835    0.0000 O   0  0  0  0  0  0  0  0  0  0  0  0
    9.8422  -10.7335    0.0000 O   0  0  0  0  0  0  0  0  0  0  0  0
   10.5567  -11.1460    0.0000 C   0  0  0  0  0  0  0  0  0  0  0  0
    6.9843  -10.7335    0.0000 O   0  0  0  0  0  0  0  0  0  0  0  0
    6.2698  -11.1460    0.0000 C   0  0  1  0  0  0  0  0  0  0  0  0
    6.2698  -11.9710    0.0000 C   0  0  2  0  0  0  0  0  0  0  0  0
    6.9843  -12.3835    0.0000 O   0  0  0  0  0  0  0  0  0  0  0  0
    5.5554  -12.3835    0.0000 C   0  0  1  0  0  0  0  0  0  0  0  0
    5.5554  -13.2085    0.0000 O   0  0  0  0  0  0  0  0  0  0  0  0
    4.8409  -11.9710    0.0000 C   0  0  2  0  0  0  0  0  0  0  0  0
    4.1264  -12.3835    0.0000 O   0  0  0  0  0  0  0  0  0  0  0  0
    4.8409  -11.1460    0.0000 C   0  0  2  0  0  0  0  0  0  0  0  0
    5.5554  -10.7335    0.0000 O   0  0  0  0  0  0  0  0  0  0  0  0
    4.1264  -10.7335    0.0000 C   0  0  0  0  0  0  0  0  0  0  0  0
    3.4120  -11.1460    0.0000 O   0  0  0  0  0  0  0  0  0  0  0  0
    9.1277   -8.6710    0.0000 C   0  0  0  0  0  0  0  0  0  0  0  0
    9.8422   -8.2585    0.0000 C   0  0  0  0  0  0  0  0  0  0  0  0
    9.8422   -7.4335    0.0000 C   0  0  0  0  0  0  0  0  0  0  0  0
   10.5567   -7.0210    0.0000 C   0  0  0  0  0  0  0  0  0  0  0  0
   11.2711   -7.4335    0.0000 C   0  0  0  0  0  0  0  0  0  0  0  0
   11.2711   -8.2585    0.0000 C   0  0  0  0  0  0  0  0  0  0  0  0
   10.5567   -8.6710    0.0000 C   0  0  0  0  0  0  0  0  0  0  0  0
    9.1277   -7.0210    0.0000 O   0  0  0  0  0  0  0  0  0  0  0  0
    9.1277   -6.1960    0.0000 C   0  0  1  0  0  0  0  0  0  0  0  0
    9.8422   -5.7835    0.0000 C   0  0  2  0  0  0  0  0  0  0  0  0
   10.5567   -6.1960    0.0000 O   0  0  0  0  0  0  0  0  0  0  0  0
    9.8422   -4.9585    0.0000 C   0  0  1  0  0  0  0  0  0  0  0  0
   10.5567   -4.5460    0.0000 O   0  0  0  0  0  0  0  0  0  0  0  0
    9.1277   -4.5460    0.0000 C   0  0  2  0  0  0  0  0  0  0  0  0
    9.1277   -3.7210    0.0000 O   0  0  0  0  0  0  0  0  0  0  0  0
    8.4133   -4.9585    0.0000 C   0  0  2  0  0  0  0  0  0  0  0  0
    8.4133   -5.7835    0.0000 O   0  0  0  0  0  0  0  0  0  0  0  0
    7.6988   -4.5460    0.0000 C   0  0  0  0  0  0  0  0  0  0  0  0
    6.9843   -4.9585    0.0000 O   0  0  0  0  0  0  0  0  0  0  0  0
  1  2  1  0  0  0  0
  2  3  1  0  0  0  0
  3  4  2  0  0  0  0
  4  5  1  0  0  0  0
  5  6  2  0  0  0  0
  6  7  1  0  0  0  0
  2  7  2  0  0  0  0
  1  8  2  0  0  0  0
  1  9  1  0  0  0  0
  4 10  1  0  0  0  0
 11 12  1  0  0  0  0
  3 11  1  0  0  0  0
 14 15  1  0  0  0  0
 15 16  1  6  0  0  0
 15 17  1  0  0  0  0
 17 18  1  1  0  0  0
 17 19  1  0  0  0  0
 19 20  1  6  0  0  0
 19 21  1  0  0  0  0
 21 22  1  0  0  0  0
 21 23  1  1  0  0  0
 23 24  1  0  0  0  0
 14 22  1  0  0  0  0
 14 13  1  1  0  0  0
  7 13  1  0  0  0  0
 25 26  1  0  0  0  0
 26 27  1  0  0  0  0
 27 28  2  0  0  0  0
 28 29  1  0  0  0  0
 29 30  2  0  0  0  0
 30 31  1  0  0  0  0
 26 31  2  0  0  0  0
 33 34  1  0  0  0  0
 34 35  1  1  0  0  0
 34 36  1  0  0  0  0
 36 37  1  6  0  0  0
 36 38  1  0  0  0  0
 38 39  1  1  0  0  0
 38 40  1  0  0  0  0
 40 41  1  0  0  0  0
 40 42  1  6  0  0  0
 42 43  1  0  0  0  0
 33 41  1  0  0  0  0
 33 32  1  6  0  0  0
 27 32  1  0  0  0  0
  9 25  1  0  0  0  0
M  END
>  <cdx:fragmentId>
31

$$$$
