99754.cdx
  Mrv1902 05222410262D          

 79 88  0  0  0  0            999 V2000
   15.0940  -11.5494    0.0000 C   0  0  1  0  0  0  0  0  0  0  0  0
   15.8084  -11.1369    0.0000 C   0  0  2  0  0  0  0  0  0  0  0  0
   16.5930  -11.3919    0.0000 C   0  0  0  0  0  0  0  0  0  0  0  0
   17.0780  -10.7244    0.0000 C   0  0  2  0  0  0  0  0  0  0  0  0
   17.8626  -10.4695    0.0000 O   0  0  0  0  0  0  0  0  0  0  0  0
   17.8626   -9.6445    0.0000 C   0  0  2  0  0  0  0  0  0  0  0  0
   17.0780   -9.3895    0.0000 C   0  0  2  0  0  0  0  0  0  0  0  0
   16.5930  -10.0570    0.0000 C   0  0  2  0  0  0  0  0  0  0  0  0
   15.8084  -10.3119    0.0000 C   0  0  1  0  0  0  0  0  0  0  0  0
   15.0940   -9.8994    0.0000 C   0  0  0  0  0  0  0  0  0  0  0  0
   14.3795  -10.3119    0.0000 C   0  0  0  0  0  0  0  0  0  0  0  0
   14.3795  -11.1369    0.0000 C   0  0  2  0  0  0  0  0  0  0  0  0
   13.6650  -11.5494    0.0000 C   0  0  1  0  0  0  0  0  0  0  0  0
   12.9505  -11.1369    0.0000 C   0  0  1  0  0  0  0  0  0  0  0  0
   12.2361  -11.5494    0.0000 C   0  0  0  0  0  0  0  0  0  0  0  0
   12.2361  -12.3744    0.0000 C   0  0  1  0  0  0  0  0  0  0  0  0
   12.9505  -12.7869    0.0000 C   0  0  0  0  0  0  0  0  0  0  0  0
   13.6650  -12.3744    0.0000 C   0  0  0  0  0  0  0  0  0  0  0  0
   14.3795  -12.7869    0.0000 C   0  0  0  0  0  0  0  0  0  0  0  0
   15.0940  -12.3744    0.0000 C   0  0  0  0  0  0  0  0  0  0  0  0
   17.7764   -8.8240    0.0000 O   0  0  0  0  0  0  0  0  0  0  0  0
   18.6163   -9.9800    0.0000 C   0  0  2  0  0  0  0  0  0  0  0  0
   19.2837   -9.4951    0.0000 C   0  0  2  0  0  0  0  0  0  0  0  0
   19.1975   -8.6746    0.0000 C   0  0  0  0  0  0  0  0  0  0  0  0
   18.4438   -8.3391    0.0000 C   0  0  0  0  0  0  0  0  0  0  0  0
   13.6650  -10.7244    0.0000 C   0  0  0  0  0  0  0  0  0  0  0  0
   15.8084   -9.4869    0.0000 C   0  0  0  0  0  0  0  0  0  0  0  0
   16.8230   -8.6049    0.0000 C   0  0  0  0  0  0  0  0  0  0  0  0
   19.8649   -8.1897    0.0000 C   0  0  0  0  0  0  0  0  0  0  0  0
   15.0940  -10.7244    0.0000 H   0  0  0  0  0  0  0  0  0  0  0  0
   15.8084  -11.9619    0.0000 H   0  0  0  0  0  0  0  0  0  0  0  0
   17.5629  -11.3919    0.0000 H   0  0  0  0  0  0  0  0  0  0  0  0
   16.2314   -9.3155    0.0000 H   0  0  0  0  0  0  0  0  0  0  0  0
   14.3795  -11.9619    0.0000 H   0  0  0  0  0  0  0  0  0  0  0  0
   11.5216  -12.7869    0.0000 O   0  0  0  0  0  0  0  0  0  0  0  0
   12.9505  -10.3119    0.0000 O   0  0  0  0  0  0  0  0  0  0  0  0
   12.5397   -9.5965    0.0000 C   0  0  2  0  0  0  0  0  0  0  0  0
   12.9538   -8.8830    0.0000 O   0  0  0  0  0  0  0  0  0  0  0  0
   12.5430   -8.1676    0.0000 C   0  0  1  0  0  0  0  0  0  0  0  0
   11.7180   -8.1657    0.0000 C   0  0  2  0  0  0  0  0  0  0  0  0
   11.3038   -8.8792    0.0000 C   0  0  1  0  0  0  0  0  0  0  0  0
   11.7147   -9.5946    0.0000 C   0  0  1  0  0  0  0  0  0  0  0  0
   12.9571   -7.4541    0.0000 C   0  0  0  0  0  0  0  0  0  0  0  0
   10.4788   -8.8773    0.0000 O   0  0  0  0  0  0  0  0  0  0  0  0
   11.3005  -10.3081    0.0000 O   0  0  0  0  0  0  0  0  0  0  0  0
   11.3071   -7.4502    0.0000 O   0  0  0  0  0  0  0  0  0  0  0  0
   12.5463   -6.7386    0.0000 O   0  0  0  0  0  0  0  0  0  0  0  0
   10.5849  -10.7185    0.0000 C   0  0  2  0  0  0  0  0  0  0  0  0
    9.8675  -10.3110    0.0000 O   0  0  0  0  0  0  0  0  0  0  0  0
    9.1444  -10.7075    0.0000 C   0  0  2  0  0  0  0  0  0  0  0  0
    9.1387  -11.5115    0.0000 C   0  0  1  0  0  0  0  0  0  0  0  0
    9.8560  -11.9189    0.0000 C   0  0  2  0  0  0  0  0  0  0  0  0
   10.5791  -11.5224    0.0000 C   0  0  1  0  0  0  0  0  0  0  0  0
    8.4242  -11.9239    0.0000 O   0  0  0  0  0  0  0  0  0  0  0  0
    8.4360  -10.2846    0.0000 C   0  0  0  0  0  0  0  0  0  0  0  0
    9.8498  -12.7439    0.0000 O   0  0  0  0  0  0  0  0  0  0  0  0
   11.2875  -11.9453    0.0000 O   0  0  0  0  0  0  0  0  0  0  0  0
   18.7025  -10.8005    0.0000 O   0  0  0  0  0  0  0  0  0  0  0  0
   20.0374   -9.8307    0.0000 O   0  0  0  0  0  0  0  0  0  0  0  0
   17.3751   -7.9918    0.0000 O   0  0  0  0  0  0  0  0  0  0  0  0
   10.0680   -8.1619    0.0000 C   0  0  2  0  0  0  0  0  0  0  0  0
   10.4684   -7.4406    0.0000 O   0  0  0  0  0  0  0  0  0  0  0  0
   10.0440   -6.7331    0.0000 C   0  0  0  0  0  0  0  0  0  0  0  0
    9.2191   -6.7470    0.0000 C   0  0  2  0  0  0  0  0  0  0  0  0
    8.8187   -7.4683    0.0000 C   0  0  1  0  0  0  0  0  0  0  0  0
    9.2431   -8.1757    0.0000 C   0  0  1  0  0  0  0  0  0  0  0  0
    8.8427   -8.8970    0.0000 O   0  0  0  0  0  0  0  0  0  0  0  0
    7.9938   -7.4821    0.0000 O   0  0  0  0  0  0  0  0  0  0  0  0
    8.7947   -6.0395    0.0000 O   0  0  0  0  0  0  0  0  0  0  0  0
   20.4334  -10.5544    0.0000 C   0  0  2  0  0  0  0  0  0  0  0  0
   20.0047  -11.2592    0.0000 O   0  0  0  0  0  0  0  0  0  0  0  0
   20.4008  -11.9830    0.0000 C   0  0  1  0  0  0  0  0  0  0  0  0
   21.2256  -12.0018    0.0000 C   0  0  1  0  0  0  0  0  0  0  0  0
   21.6543  -11.2970    0.0000 C   0  0  1  0  0  0  0  0  0  0  0  0
   21.2582  -10.5733    0.0000 C   0  0  1  0  0  0  0  0  0  0  0  0
   21.6869   -9.8684    0.0000 O   0  0  0  0  0  0  0  0  0  0  0  0
   22.4791  -11.3158    0.0000 O   0  0  0  0  0  0  0  0  0  0  0  0
   21.6216  -12.7255    0.0000 O   0  0  0  0  0  0  0  0  0  0  0  0
   19.9720  -12.6878    0.0000 C   0  0  0  0  0  0  0  0  0  0  0  0
  1  2  1  0  0  0  0
  2  3  1  0  0  0  0
  3  4  1  0  0  0  0
  4  5  1  0  0  0  0
  6  5  1  6  0  0  0
  6  7  1  0  0  0  0
  7  8  1  0  0  0  0
  8  9  1  0  0  0  0
  9 10  1  0  0  0  0
 10 11  1  0  0  0  0
 11 12  1  0  0  0  0
 12 13  1  0  0  0  0
 13 14  1  0  0  0  0
 14 15  1  0  0  0  0
 15 16  1  0  0  0  0
 16 17  1  0  0  0  0
 17 18  1  0  0  0  0
 18 19  2  0  0  0  0
 19 20  1  0  0  0  0
  1 20  1  0  0  0  0
  1 12  1  0  0  0  0
 13 18  1  0  0  0  0
  2  9  1  0  0  0  0
  4  8  1  0  0  0  0
 22 23  1  0  0  0  0
 23 24  1  0  0  0  0
 24 25  1  0  0  0  0
 21 25  1  0  0  0  0
  6 21  1  0  0  0  0
  6 22  1  0  0  0  0
 13 26  1  1  0  0  0
  9 27  1  1  0  0  0
  7 28  1  6  0  0  0
 24 29  2  0  0  0  0
 16 35  1  1  0  0  0
  1 30  1  1  0  0  0
  2 31  1  6  0  0  0
  4 32  1  6  0  0  0
  8 33  1  6  0  0  0
 12 34  1  6  0  0  0
 14 36  1  1  0  0  0
 37 36  1  1  0  0  0
 37 38  1  0  0  0  0
 38 39  1  0  0  0  0
 39 40  1  0  0  0  0
 40 41  1  0  0  0  0
 41 42  1  0  0  0  0
 42 37  1  0  0  0  0
 39 43  1  1  0  0  0
 41 44  1  1  0  0  0
 42 45  1  6  0  0  0
 40 46  1  6  0  0  0
 43 47  1  0  0  0  0
 48 45  1  1  0  0  0
 48 49  1  0  0  0  0
 49 50  1  0  0  0  0
 50 51  1  0  0  0  0
 51 52  1  0  0  0  0
 52 53  1  0  0  0  0
 53 48  1  0  0  0  0
 51 54  1  1  0  0  0
 50 55  1  6  0  0  0
 52 56  1  6  0  0  0
 53 57  1  6  0  0  0
 22 58  1  6  0  0  0
 23 59  1  6  0  0  0
 28 60  1  0  0  0  0
 61 44  1  1  0  0  0
 61 62  1  0  0  0  0
 62 63  1  0  0  0  0
 63 64  1  0  0  0  0
 64 65  1  0  0  0  0
 65 66  1  0  0  0  0
 66 61  1  0  0  0  0
 66 67  1  6  0  0  0
 65 68  1  1  0  0  0
 64 69  1  6  0  0  0
 70 59  1  1  0  0  0
 70 71  1  0  0  0  0
 71 72  1  0  0  0  0
 72 73  1  0  0  0  0
 73 74  1  0  0  0  0
 74 75  1  0  0  0  0
 75 70  1  0  0  0  0
 75 76  1  6  0  0  0
 74 77  1  1  0  0  0
 73 78  1  1  0  0  0
 72 79  1  1  0  0  0
M  END
>  <cdx:fragmentId>
198565

$$$$
