99759.cdx
  Mrv1902 05222410202D          

 66 74  0  0  0  0            999 V2000
   15.0940  -11.5494    0.0000 C   0  0  1  0  0  0  0  0  0  0  0  0
   15.8084  -11.1369    0.0000 C   0  0  2  0  0  0  0  0  0  0  0  0
   16.5930  -11.3919    0.0000 C   0  0  0  0  0  0  0  0  0  0  0  0
   17.0780  -10.7244    0.0000 C   0  0  2  0  0  0  0  0  0  0  0  0
   17.8626  -10.4695    0.0000 O   0  0  0  0  0  0  0  0  0  0  0  0
   17.8626   -9.6445    0.0000 C   0  0  2  0  0  0  0  0  0  0  0  0
   17.0780   -9.3895    0.0000 C   0  0  2  0  0  0  0  0  0  0  0  0
   16.5930  -10.0570    0.0000 C   0  0  2  0  0  0  0  0  0  0  0  0
   15.8084  -10.3119    0.0000 C   0  0  1  0  0  0  0  0  0  0  0  0
   15.0940   -9.8994    0.0000 C   0  0  0  0  0  0  0  0  0  0  0  0
   14.3795  -10.3119    0.0000 C   0  0  0  0  0  0  0  0  0  0  0  0
   14.3795  -11.1369    0.0000 C   0  0  2  0  0  0  0  0  0  0  0  0
   13.6650  -11.5494    0.0000 C   0  0  1  0  0  0  0  0  0  0  0  0
   12.9505  -11.1369    0.0000 C   0  0  1  0  0  0  0  0  0  0  0  0
   12.2361  -11.5494    0.0000 C   0  0  0  0  0  0  0  0  0  0  0  0
   12.2361  -12.3744    0.0000 C   0  0  1  0  0  0  0  0  0  0  0  0
   12.9505  -12.7869    0.0000 C   0  0  0  0  0  0  0  0  0  0  0  0
   13.6650  -12.3744    0.0000 C   0  0  0  0  0  0  0  0  0  0  0  0
   14.3795  -12.7869    0.0000 C   0  0  0  0  0  0  0  0  0  0  0  0
   15.0940  -12.3744    0.0000 C   0  0  0  0  0  0  0  0  0  0  0  0
   17.7764   -8.8240    0.0000 O   0  0  0  0  0  0  0  0  0  0  0  0
   18.6163   -9.9800    0.0000 C   0  0  0  0  0  0  0  0  0  0  0  0
   19.2837   -9.4951    0.0000 C   0  0  0  0  0  0  0  0  0  0  0  0
   19.1975   -8.6746    0.0000 C   0  0  0  0  0  0  0  0  0  0  0  0
   18.4438   -8.3391    0.0000 C   0  0  0  0  0  0  0  0  0  0  0  0
   13.6650  -10.7244    0.0000 C   0  0  0  0  0  0  0  0  0  0  0  0
   15.8084   -9.4869    0.0000 C   0  0  0  0  0  0  0  0  0  0  0  0
   16.8230   -8.6049    0.0000 C   0  0  0  0  0  0  0  0  0  0  0  0
   19.8649   -8.1897    0.0000 C   0  0  0  0  0  0  0  0  0  0  0  0
   15.0940  -10.7244    0.0000 H   0  0  0  0  0  0  0  0  0  0  0  0
   15.8084  -11.9619    0.0000 H   0  0  0  0  0  0  0  0  0  0  0  0
   17.5629  -11.3919    0.0000 H   0  0  0  0  0  0  0  0  0  0  0  0
   16.2314   -9.3155    0.0000 H   0  0  0  0  0  0  0  0  0  0  0  0
   14.3795  -11.9619    0.0000 H   0  0  0  0  0  0  0  0  0  0  0  0
   11.5216  -12.7869    0.0000 O   0  0  0  0  0  0  0  0  0  0  0  0
   12.9505  -10.3119    0.0000 O   0  0  0  0  0  0  0  0  0  0  0  0
   12.5245   -9.6055    0.0000 C   0  0  2  0  0  0  0  0  0  0  0  0
   12.9233   -8.8832    0.0000 O   0  0  0  0  0  0  0  0  0  0  0  0
   12.4972   -8.1768    0.0000 C   0  0  1  0  0  0  0  0  0  0  0  0
   11.6724   -8.1925    0.0000 C   0  0  2  0  0  0  0  0  0  0  0  0
   11.2736   -8.9147    0.0000 C   0  0  1  0  0  0  0  0  0  0  0  0
   11.6996   -9.6212    0.0000 C   0  0  1  0  0  0  0  0  0  0  0  0
   12.8960   -7.4546    0.0000 C   0  0  0  0  0  0  0  0  0  0  0  0
   10.4487   -8.9305    0.0000 O   0  0  0  0  0  0  0  0  0  0  0  0
   11.3008  -10.3434    0.0000 O   0  0  0  0  0  0  0  0  0  0  0  0
   11.2463   -7.4861    0.0000 O   0  0  0  0  0  0  0  0  0  0  0  0
   12.4699   -6.7481    0.0000 O   0  0  0  0  0  0  0  0  0  0  0  0
   10.4760  -10.3592    0.0000 C   0  0  2  0  0  0  0  0  0  0  0  0
   10.5360   -7.0664    0.0000 C   0  0  2  0  0  0  0  0  0  0  0  0
   10.5360   -6.2414    0.0000 O   0  0  0  0  0  0  0  0  0  0  0  0
    9.8341   -5.8086    0.0000 C   0  0  0  0  0  0  0  0  0  0  0  0
    9.1322   -6.2007    0.0000 C   0  0  2  0  0  0  0  0  0  0  0  0
    9.1322   -7.0257    0.0000 C   0  0  1  0  0  0  0  0  0  0  0  0
    9.8341   -7.4586    0.0000 C   0  0  1  0  0  0  0  0  0  0  0  0
   10.0429   -9.6570    0.0000 O   0  0  0  0  0  0  0  0  0  0  0  0
    9.2182   -9.6570    0.0000 C   0  0  2  0  0  0  0  0  0  0  0  0
    8.8267  -10.3592    0.0000 C   0  0  1  0  0  0  0  0  0  0  0  0
    9.2598  -11.0613    0.0000 C   0  0  2  0  0  0  0  0  0  0  0  0
   10.0844  -11.0613    0.0000 C   0  0  1  0  0  0  0  0  0  0  0  0
    8.0019  -10.3773    0.0000 O   0  0  0  0  0  0  0  0  0  0  0  0
    8.8004   -8.9456    0.0000 C   0  0  0  0  0  0  0  0  0  0  0  0
    8.8577  -11.7817    0.0000 O   0  0  0  0  0  0  0  0  0  0  0  0
   10.5023  -11.7727    0.0000 O   0  0  0  0  0  0  0  0  0  0  0  0
    9.8163   -8.2834    0.0000 O   0  0  0  0  0  0  0  0  0  0  0  0
    8.4118   -7.4277    0.0000 O   0  0  0  0  0  0  0  0  0  0  0  0
    8.4207   -5.7831    0.0000 O   0  0  0  0  0  0  0  0  0  0  0  0
  1  2  1  0  0  0  0
  2  3  1  0  0  0  0
  3  4  1  0  0  0  0
  4  5  1  0  0  0  0
  6  5  1  6  0  0  0
  6  7  1  0  0  0  0
  7  8  1  0  0  0  0
  8  9  1  0  0  0  0
  9 10  1  0  0  0  0
 10 11  1  0  0  0  0
 11 12  1  0  0  0  0
 12 13  1  0  0  0  0
 13 14  1  0  0  0  0
 14 15  1  0  0  0  0
 15 16  1  0  0  0  0
 16 17  1  0  0  0  0
 17 18  1  0  0  0  0
 18 19  2  0  0  0  0
 19 20  1  0  0  0  0
  1 20  1  0  0  0  0
  1 12  1  0  0  0  0
 13 18  1  0  0  0  0
  2  9  1  0  0  0  0
  4  8  1  0  0  0  0
 22 23  1  0  0  0  0
 23 24  1  0  0  0  0
 24 25  1  0  0  0  0
 21 25  1  0  0  0  0
  6 21  1  0  0  0  0
  6 22  1  0  0  0  0
 13 26  1  1  0  0  0
  9 27  1  1  0  0  0
  7 28  1  6  0  0  0
 24 29  2  0  0  0  0
 16 35  1  1  0  0  0
  1 30  1  1  0  0  0
  2 31  1  6  0  0  0
  4 32  1  6  0  0  0
  8 33  1  6  0  0  0
 12 34  1  6  0  0  0
 14 36  1  1  0  0  0
 37 36  1  1  0  0  0
 37 38  1  0  0  0  0
 38 39  1  0  0  0  0
 39 40  1  0  0  0  0
 40 41  1  0  0  0  0
 41 42  1  0  0  0  0
 42 37  1  0  0  0  0
 39 43  1  1  0  0  0
 41 44  1  1  0  0  0
 42 45  1  6  0  0  0
 40 46  1  6  0  0  0
 43 47  1  0  0  0  0
 48 45  1  1  0  0  0
 49 46  1  1  0  0  0
 49 50  1  0  0  0  0
 50 51  1  0  0  0  0
 51 52  1  0  0  0  0
 52 53  1  0  0  0  0
 53 54  1  0  0  0  0
 54 49  1  0  0  0  0
 48 55  1  0  0  0  0
 55 56  1  0  0  0  0
 56 57  1  0  0  0  0
 57 58  1  0  0  0  0
 58 59  1  0  0  0  0
 59 48  1  0  0  0  0
 57 60  1  1  0  0  0
 56 61  1  6  0  0  0
 58 62  1  6  0  0  0
 59 63  1  6  0  0  0
 54 64  1  6  0  0  0
 53 65  1  1  0  0  0
 52 66  1  6  0  0  0
M  END
>  <cdx:fragmentId>
198565

$$$$
