99755.cdx
  Mrv1902 05222410272D          

 62 69  0  0  0  0            999 V2000
   10.8058  -11.4125    0.0000 C   0  0  1  0  0  0  0  0  0  0  0  0
   10.8058  -10.5875    0.0000 C   0  0  0  0  0  0  0  0  0  0  0  0
   11.5203  -10.1750    0.0000 C   0  0  2  0  0  0  0  0  0  0  0  0
   11.5203  -11.8250    0.0000 C   0  0  0  0  0  0  0  0  0  0  0  0
   12.2347  -11.4125    0.0000 C   0  0  0  0  0  0  0  0  0  0  0  0
   12.9492  -11.8250    0.0000 C   0  0  0  0  0  0  0  0  0  0  0  0
   13.6637  -11.4125    0.0000 C   0  0  0  0  0  0  0  0  0  0  0  0
   13.6637  -10.5875    0.0000 C   0  0  1  0  0  0  0  0  0  0  0  0
   14.3782  -10.1750    0.0000 C   0  0  2  0  0  0  0  0  0  0  0  0
   15.1628  -10.4299    0.0000 C   0  0  0  0  0  0  0  0  0  0  0  0
   15.6477   -9.7625    0.0000 C   0  0  2  0  0  0  0  0  0  0  0  0
   16.1326  -10.4299    0.0000 H   0  0  0  0  0  0  0  0  0  0  0  0
   16.4323   -9.5076    0.0000 O   0  0  0  0  0  0  0  0  0  0  0  0
   15.1628   -9.0951    0.0000 C   0  0  2  0  0  0  0  0  0  0  0  0
   14.8011   -8.3536    0.0000 H   0  0  0  0  0  0  0  0  0  0  0  0
   15.6477   -8.4276    0.0000 C   0  0  1  0  0  0  0  0  0  0  0  0
   16.4323   -8.6826    0.0000 C   0  0  0  0  0  0  0  0  0  0  0  0
   15.3928   -7.6430    0.0000 C   0  0  0  0  0  0  0  0  0  0  0  0
   14.3782   -9.3500    0.0000 C   0  0  2  0  0  0  0  0  0  0  0  0
   14.3782   -8.5250    0.0000 C   0  0  0  0  0  0  0  0  0  0  0  0
   13.6637   -8.9375    0.0000 C   0  0  0  0  0  0  0  0  0  0  0  0
   12.9492   -9.3500    0.0000 C   0  0  0  0  0  0  0  0  0  0  0  0
   12.9492  -10.1750    0.0000 C   0  0  2  0  0  0  0  0  0  0  0  0
   12.2347  -10.5875    0.0000 C   0  0  1  0  0  0  0  0  0  0  0  0
   12.2347   -9.7625    0.0000 C   0  0  0  0  0  0  0  0  0  0  0  0
   12.9492  -11.0000    0.0000 H   0  0  0  0  0  0  0  0  0  0  0  0
   13.6637   -9.7625    0.0000 H   0  0  0  0  0  0  0  0  0  0  0  0
   14.3782  -11.0000    0.0000 H   0  0  0  0  0  0  0  0  0  0  0  0
   10.0913  -11.8250    0.0000 O   0  0  0  0  0  0  0  0  0  0  0  0
   15.9448   -7.0299    0.0000 O   0  0  0  0  0  0  0  0  0  0  0  0
   17.0998   -8.1976    0.0000 O   0  0  0  0  0  0  0  0  0  0  0  0
   11.5203   -9.3500    0.0000 O   0  0  0  0  0  0  0  0  0  0  0  0
   11.1077   -8.6356    0.0000 C   0  0  2  0  0  0  0  0  0  0  0  0
   11.5201   -7.9211    0.0000 O   0  0  0  0  0  0  0  0  0  0  0  0
   11.1075   -7.2066    0.0000 C   0  0  1  0  0  0  0  0  0  0  0  0
   10.2825   -7.2067    0.0000 C   0  0  2  0  0  0  0  0  0  0  0  0
    9.8701   -7.9212    0.0000 C   0  0  1  0  0  0  0  0  0  0  0  0
   10.2827   -8.6357    0.0000 C   0  0  1  0  0  0  0  0  0  0  0  0
   11.5200   -6.4921    0.0000 C   0  0  0  0  0  0  0  0  0  0  0  0
    9.0451   -7.9213    0.0000 O   0  0  0  0  0  0  0  0  0  0  0  0
    9.8703   -9.3502    0.0000 O   0  0  0  0  0  0  0  0  0  0  0  0
    9.8700   -6.4923    0.0000 O   0  0  0  0  0  0  0  0  0  0  0  0
   11.1074   -5.7777    0.0000 O   0  0  0  0  0  0  0  0  0  0  0  0
    9.1614   -9.7722    0.0000 C   0  0  2  0  0  0  0  0  0  0  0  0
    8.3329   -7.5050    0.0000 C   0  0  2  0  0  0  0  0  0  0  0  0
    8.3371   -6.6800    0.0000 O   0  0  0  0  0  0  0  0  0  0  0  0
    7.6251   -6.2637    0.0000 C   0  0  0  0  0  0  0  0  0  0  0  0
    6.9084   -6.6723    0.0000 C   0  0  2  0  0  0  0  0  0  0  0  0
    6.9040   -7.4971    0.0000 C   0  0  1  0  0  0  0  0  0  0  0  0
    7.6162   -7.9136    0.0000 C   0  0  1  0  0  0  0  0  0  0  0  0
    8.4415   -9.3693    0.0000 O   0  0  0  0  0  0  0  0  0  0  0  0
    7.7326   -9.7914    0.0000 C   0  0  2  0  0  0  0  0  0  0  0  0
    7.7436  -10.6163    0.0000 C   0  0  1  0  0  0  0  0  0  0  0  0
    8.4636  -11.0192    0.0000 C   0  0  2  0  0  0  0  0  0  0  0  0
    9.1725  -10.5971    0.0000 C   0  0  1  0  0  0  0  0  0  0  0  0
    6.1962   -6.2560    0.0000 O   0  0  0  0  0  0  0  0  0  0  0  0
    6.1873   -7.9057    0.0000 O   0  0  0  0  0  0  0  0  0  0  0  0
    7.6116   -8.7386    0.0000 O   0  0  0  0  0  0  0  0  0  0  0  0
    9.8924  -11.0000    0.0000 O   0  0  0  0  0  0  0  0  0  0  0  0
    8.4747  -11.8441    0.0000 O   0  0  0  0  0  0  0  0  0  0  0  0
    7.0348  -11.0384    0.0000 O   0  0  0  0  0  0  0  0  0  0  0  0
    7.0126   -9.3885    0.0000 C   0  0  0  0  0  0  0  0  0  0  0  0
  1  2  1  0  0  0  0
  2  3  1  0  0  0  0
  1  4  1  0  0  0  0
  4  5  1  0  0  0  0
  5  6  2  0  0  0  0
  6  7  1  0  0  0  0
  7  8  1  0  0  0  0
  8  9  1  0  0  0  0
  9 10  1  0  0  0  0
 10 11  1  0  0  0  0
 11 12  1  6  0  0  0
 11 13  1  0  0  0  0
 11 14  1  0  0  0  0
 14 15  1  6  0  0  0
 14 16  1  0  0  0  0
 16 17  1  0  0  0  0
 13 17  1  0  0  0  0
 16 18  1  6  0  0  0
 14 19  1  0  0  0  0
  9 19  1  0  0  0  0
 19 20  1  1  0  0  0
 19 21  1  0  0  0  0
 21 22  1  0  0  0  0
 22 23  1  0  0  0  0
  8 23  1  0  0  0  0
 23 24  1  0  0  0  0
  3 24  1  0  0  0  0
  5 24  1  0  0  0  0
 24 25  1  1  0  0  0
 23 26  1  6  0  0  0
  8 27  1  1  0  0  0
  9 28  1  6  0  0  0
  1 29  1  1  0  0  0
 18 30  1  0  0  0  0
 17 31  2  0  0  0  0
  3 32  1  1  0  0  0
 33 32  1  1  0  0  0
 33 34  1  0  0  0  0
 34 35  1  0  0  0  0
 35 36  1  0  0  0  0
 36 37  1  0  0  0  0
 37 38  1  0  0  0  0
 38 33  1  0  0  0  0
 35 39  1  1  0  0  0
 37 40  1  1  0  0  0
 38 41  1  6  0  0  0
 36 42  1  6  0  0  0
 39 43  1  0  0  0  0
 44 41  1  1  0  0  0
 45 40  1  1  0  0  0
 45 46  1  0  0  0  0
 46 47  1  0  0  0  0
 47 48  1  0  0  0  0
 48 49  1  0  0  0  0
 49 50  1  0  0  0  0
 50 45  1  0  0  0  0
 44 51  1  0  0  0  0
 51 52  1  0  0  0  0
 52 53  1  0  0  0  0
 53 54  1  0  0  0  0
 54 55  1  0  0  0  0
 55 44  1  0  0  0  0
 48 56  1  6  0  0  0
 49 57  1  1  0  0  0
 50 58  1  6  0  0  0
 55 59  1  6  0  0  0
 54 60  1  6  0  0  0
 53 61  1  1  0  0  0
 52 62  1  6  0  0  0
M  END
>  <cdx:fragmentId>
687

$$$$
