99756.cdx
  Mrv1902 05222410262D          

 17 19  0  0  0  0            999 V2000
    6.9690  -10.0641    0.0000 N   0  0  0  0  0  0  0  0  0  0  0  0
    7.4539   -9.3966    0.0000 C   0  0  0  0  0  0  0  0  0  0  0  0
    6.1843   -8.9841    0.0000 C   0  0  0  0  0  0  0  0  0  0  0  0
    5.4699   -8.5716    0.0000 N   0  0  0  0  0  0  0  0  0  0  0  0
    4.7554   -8.9841    0.0000 C   0  0  0  0  0  0  0  0  0  0  0  0
    4.7554   -9.8091    0.0000 N   0  0  0  0  0  0  0  0  0  0  0  0
    5.4699  -10.2216    0.0000 C   0  0  0  0  0  0  0  0  0  0  0  0
    6.1843   -9.8091    0.0000 C   0  0  0  0  0  0  0  0  0  0  0  0
    5.4699  -11.0466    0.0000 N   0  0  0  0  0  0  0  0  0  0  0  0
    6.9690   -8.7292    0.0000 N   0  0  0  0  0  0  0  0  0  0  0  0
    7.5523   -5.2417    0.0000 O   0  0  0  0  0  0  0  0  0  0  0  0
    6.9690   -5.8251    0.0000 C   0  0  0  0  0  0  0  0  0  0  0  0
    7.2239   -7.9446    0.0000 C   0  0  1  0  0  0  0  0  0  0  0  0
    8.0085   -7.6896    0.0000 C   0  0  0  0  0  0  0  0  0  0  0  0
    8.0085   -6.8646    0.0000 C   0  0  0  0  0  0  0  0  0  0  0  0
    7.2239   -6.6097    0.0000 C   0  0  2  0  0  0  0  0  0  0  0  0
    6.7390   -7.2771    0.0000 O   0  0  0  0  0  0  0  0  0  0  0  0
 13 10  1  6  0  0  0
 16 12  1  6  0  0  0
 12 11  1  0  0  0  0
 17 13  1  0  0  0  0
 14 13  1  0  0  0  0
 15 14  1  0  0  0  0
 16 15  1  0  0  0  0
 17 16  1  0  0  0  0
  1  2  2  0  0  0  0
  2 10  1  0  0  0  0
 10  3  1  0  0  0  0
  3  4  2  0  0  0  0
  4  5  1  0  0  0  0
  5  6  2  0  0  0  0
  6  7  1  0  0  0  0
  7  8  2  0  0  0  0
  1  8  1  0  0  0  0
  3  8  1  0  0  0  0
  7  9  1  0  0  0  0
M  END
>  <cdx:fragmentId>
21

$$$$
