99752.cdx
  Mrv1902 05222410282D          

 28 32  0  0  0  0            999 V2000
    6.6869   -7.5075    0.0000 C   0  0  1  0  0  0  0  0  0  0  0  0
    6.6869   -8.3325    0.0000 C   0  0  2  0  0  0  0  0  0  0  0  0
    7.5119   -8.3325    0.0000 C   0  0  1  0  0  0  0  0  0  0  0  0
    7.5119   -7.5075    0.0000 C   0  0  2  0  0  0  0  0  0  0  0  0
    5.9023   -7.2526    0.0000 C   0  0  0  0  0  0  0  0  0  0  0  0
    5.4174   -7.9200    0.0000 O   0  0  0  0  0  0  0  0  0  0  0  0
    5.9023   -8.5874    0.0000 C   0  0  0  0  0  0  0  0  0  0  0  0
    8.2965   -8.5874    0.0000 C   0  0  0  0  0  0  0  0  0  0  0  0
    8.7814   -7.9200    0.0000 O   0  0  0  0  0  0  0  0  0  0  0  0
    8.2965   -7.2526    0.0000 C   0  0  0  0  0  0  0  0  0  0  0  0
    6.7100   -6.9300    0.0000 C   0  0  0  0  0  0  0  0  0  0  0  0
    6.6825   -8.9100    0.0000 C   0  0  0  0  0  0  0  0  0  0  0  0
    7.5350   -6.9300    0.0000 C   0  0  0  0  0  0  0  0  0  0  0  0
    7.5075   -8.8550    0.0000 C   0  0  0  0  0  0  0  0  0  0  0  0
    6.0775   -6.9300    0.0000 C   0  0  0  0  0  0  0  0  0  0  0  0
    6.1050   -8.9100    0.0000 C   0  0  0  0  0  0  0  0  0  0  0  0
    8.0575   -6.9300    0.0000 C   0  0  0  0  0  0  0  0  0  0  0  0
    8.0575   -8.8550    0.0000 C   0  0  0  0  0  0  0  0  0  0  0  0
    8.5515   -6.4679    0.0000 O   0  0  0  0  0  0  0  0  0  0  0  0
    8.5515   -9.3721    0.0000 C   0  0  0  0  0  0  0  0  0  0  0  0
    9.3765   -9.3721    0.0000 C   0  0  0  0  0  0  0  0  0  0  0  0
    5.6473   -9.3721    0.0000 O   0  0  0  0  0  0  0  0  0  0  0  0
    5.6473   -6.4679    0.0000 C   0  0  0  0  0  0  0  0  0  0  0  0
    4.8223   -6.4679    0.0000 C   0  0  0  0  0  0  0  0  0  0  0  0
    9.8787  -10.0266    0.0000 C   0  0  0  0  0  0  0  0  0  0  0  0
   10.6966   -9.9189    0.0000 C   0  0  0  0  0  0  0  0  0  0  0  0
    4.4098   -5.7535    0.0000 C   0  0  0  0  0  0  0  0  0  0  0  0
    3.5848   -5.7535    0.0000 C   0  0  0  0  0  0  0  0  0  0  0  0
  1  2  1  0  0  0  0
  2  3  1  0  0  0  0
  3  4  1  0  0  0  0
  4  1  1  0  0  0  0
  1  5  1  0  0  0  0
  5  6  1  0  0  0  0
  6  7  1  0  0  0  0
  7  2  1  0  0  0  0
  3  8  1  0  0  0  0
  8  9  1  0  0  0  0
  9 10  1  0  0  0  0
  1 11  1  1  0  0  0
  2 12  1  1  0  0  0
  4 13  1  6  0  0  0
  3 14  1  6  0  0  0
 11 15  1  0  0  0  0
 15 16  1  0  0  0  0
 16 12  2  0  0  0  0
 13 17  2  0  0  0  0
 14 18  1  0  0  0  0
 17 18  1  0  0  0  0
 10 19  2  0  0  0  0
  8 20  2  0  0  0  0
 20 21  1  0  0  0  0
  7 22  2  0  0  0  0
  5 23  2  0  0  0  0
 23 24  1  0  0  0  0
  4 10  1  0  0  0  0
 21 25  1  0  0  0  0
 25 26  1  0  0  0  0
 24 27  1  0  0  0  0
 27 28  1  0  0  0  0
M  END
>  <cdx:fragmentId>
5

$$$$
