99751.cdx
  Mrv1902 05222410272D          

 28 32  0  0  0  0            999 V2000
    5.7937   -7.6175    0.0000 C   0  0  0  0  0  0  0  0  0  0  0  0
    5.7937   -8.4425    0.0000 C   0  0  0  0  0  0  0  0  0  0  0  0
    6.5081   -8.8550    0.0000 C   0  0  0  0  0  0  0  0  0  0  0  0
    7.2226   -8.4425    0.0000 C   0  0  0  0  0  0  0  0  0  0  0  0
    7.2226   -7.6175    0.0000 C   0  0  0  0  0  0  0  0  0  0  0  0
    6.5081   -7.2050    0.0000 C   0  0  0  0  0  0  0  0  0  0  0  0
    5.0091   -7.3626    0.0000 C   0  0  0  0  0  0  0  0  0  0  0  0
    4.5241   -8.0300    0.0000 O   0  0  0  0  0  0  0  0  0  0  0  0
    5.0091   -8.6974    0.0000 C   0  0  0  0  0  0  0  0  0  0  0  0
    7.6351   -6.9030    0.0000 C   0  0  2  0  0  0  0  0  0  0  0  0
    6.9206   -6.4905    0.0000 C   0  0  1  0  0  0  0  0  0  0  0  0
    8.3496   -6.4905    0.0000 C   0  0  0  0  0  0  0  0  0  0  0  0
    8.3496   -5.6655    0.0000 C   0  0  0  0  0  0  0  0  0  0  0  0
    7.6351   -5.2530    0.0000 C   0  0  0  0  0  0  0  0  0  0  0  0
    6.9206   -5.6655    0.0000 C   0  0  0  0  0  0  0  0  0  0  0  0
    9.1342   -6.7455    0.0000 C   0  0  0  0  0  0  0  0  0  0  0  0
    9.6191   -6.0780    0.0000 O   0  0  0  0  0  0  0  0  0  0  0  0
    9.1342   -5.4106    0.0000 C   0  0  0  0  0  0  0  0  0  0  0  0
    4.7541   -6.5779    0.0000 O   0  0  0  0  0  0  0  0  0  0  0  0
    4.7541   -9.4821    0.0000 C   0  0  0  0  0  0  0  0  0  0  0  0
    3.9572   -9.6956    0.0000 C   0  0  0  0  0  0  0  0  0  0  0  0
    3.3739   -9.1122    0.0000 C   0  0  0  0  0  0  0  0  0  0  0  0
    2.5770   -9.3257    0.0000 C   0  0  0  0  0  0  0  0  0  0  0  0
    9.3892   -7.5301    0.0000 O   0  0  0  0  0  0  0  0  0  0  0  0
    9.3892   -4.6260    0.0000 C   0  0  0  0  0  0  0  0  0  0  0  0
   10.1860   -4.4124    0.0000 C   0  0  0  0  0  0  0  0  0  0  0  0
   10.7694   -4.9958    0.0000 C   0  0  0  0  0  0  0  0  0  0  0  0
   11.5663   -4.7823    0.0000 C   0  0  0  0  0  0  0  0  0  0  0  0
  1  2  2  0  0  0  0
  2  3  1  0  0  0  0
  3  4  1  0  0  0  0
  4  5  1  0  0  0  0
  5  6  1  0  0  0  0
  6  1  1  0  0  0  0
  1  7  1  0  0  0  0
  7  8  1  0  0  0  0
  8  9  1  0  0  0  0
  9  2  1  0  0  0  0
 10  5  1  6  0  0  0
 10 11  1  0  0  0  0
 11  6  1  6  0  0  0
 10 12  1  0  0  0  0
 12 13  2  0  0  0  0
 13 14  1  0  0  0  0
 14 15  1  0  0  0  0
 15 11  1  0  0  0  0
 12 16  1  0  0  0  0
 16 17  1  0  0  0  0
 17 18  1  0  0  0  0
 18 13  1  0  0  0  0
  7 19  2  0  0  0  0
  9 20  2  0  0  0  0
 20 21  1  0  0  0  0
 21 22  1  0  0  0  0
 22 23  1  0  0  0  0
 16 24  2  0  0  0  0
 18 25  2  0  0  0  0
 25 26  1  0  0  0  0
 26 27  1  0  0  0  0
 27 28  1  0  0  0  0
M  END
>  <cdx:fragmentId>
5

$$$$
