99757.cdx
  Mrv1902 05222410262D          

 33 34  0  0  0  0            999 V2000
    2.9887   -7.4387    0.0000 C   0  0  0  0  0  0  0  0  0  0  0  0
    4.4176   -8.2637    0.0000 C   0  0  0  0  0  0  0  0  0  0  0  0
    4.4176   -7.4387    0.0000 C   0  0  0  0  0  0  0  0  0  0  0  0
    3.7031   -7.0263    0.0000 C   0  0  0  0  0  0  0  0  0  0  0  0
    5.8466   -8.2637    0.0000 O   0  0  0  0  0  0  0  0  0  0  0  0
    5.8466   -7.4387    0.0000 C   0  0  0  0  0  0  0  0  0  0  0  0
    5.1321   -7.0263    0.0000 C   0  0  0  0  0  0  0  0  0  0  0  0
    7.2755   -8.2637    0.0000 C   0  0  0  0  0  0  0  0  0  0  0  0
    7.2755   -7.4387    0.0000 C   0  0  1  0  0  0  0  0  0  0  0  0
    6.5610   -7.0263    0.0000 O   0  0  0  0  0  0  0  0  0  0  0  0
    7.9900   -8.6762    0.0000 C   0  0  2  0  0  0  0  0  0  0  0  0
    8.7044   -8.2637    0.0000 C   0  0  1  0  0  0  0  0  0  0  0  0
    8.7044   -7.4387    0.0000 C   0  0  2  0  0  0  0  0  0  0  0  0
    7.9900   -7.0263    0.0000 C   0  0  0  0  0  0  0  0  0  0  0  0
    9.4891   -8.5187    0.0000 C   0  0  0  0  0  0  0  0  0  0  0  0
    9.9740   -7.8513    0.0000 C   0  0  0  0  0  0  0  0  0  0  0  0
    9.4891   -7.1838    0.0000 C   0  0  1  0  0  0  0  0  0  0  0  0
    7.9900   -6.2012    0.0000 C   0  0  0  0  0  0  0  0  0  0  0  0
    7.9900   -9.5013    0.0000 C   0  0  0  0  0  0  0  0  0  0  0  0
    7.2755   -9.9138    0.0000 C   0  0  0  0  0  0  0  0  0  0  0  0
    9.7440   -9.3033    0.0000 C   0  0  0  0  0  0  0  0  0  0  0  0
   10.7990   -7.8513    0.0000 O   0  0  0  0  0  0  0  0  0  0  0  0
    9.7440   -6.3992    0.0000 O   0  0  0  0  0  0  0  0  0  0  0  0
   10.4693   -6.0061    0.0000 C   0  0  0  0  0  0  0  0  0  0  0  0
   11.1724   -6.4377    0.0000 C   0  0  0  0  0  0  0  0  0  0  0  0
   10.4916   -5.1814    0.0000 O   0  0  0  0  0  0  0  0  0  0  0  0
   11.1502   -7.2624    0.0000 C   0  0  0  0  0  0  0  0  0  0  0  0
   11.8978   -6.0446    0.0000 C   0  0  0  0  0  0  0  0  0  0  0  0
   12.6225   -6.4388    0.0000 C   0  0  0  0  0  0  0  0  0  0  0  0
    8.7044   -6.6137    0.0000 H   0  0  0  0  0  0  0  0  0  0  0  0
    8.7044   -9.0887    0.0000 H   0  0  0  0  0  0  0  0  0  0  0  0
    9.1920   -9.9164    0.0000 C   0  0  0  0  0  0  0  0  0  0  0  0
    8.7044   -9.9138    0.0000 C   0  0  0  0  0  0  0  0  0  0  0  0
  2  3  1  0  0  0  0
  3  4  1  0  0  0  0
  4  1  1  0  0  0  0
  5  6  2  0  0  0  0
  6  7  1  0  0  0  0
  7  3  2  0  0  0  0
  8  9  1  0  0  0  0
  9 10  1  1  0  0  0
 10  6  1  0  0  0  0
  8 11  1  0  0  0  0
 11 12  1  0  0  0  0
 12 13  1  0  0  0  0
 13 14  1  0  0  0  0
 14  9  1  0  0  0  0
 12 15  1  0  0  0  0
 15 16  1  0  0  0  0
 16 17  1  0  0  0  0
 17 13  1  0  0  0  0
 14 18  2  0  0  0  0
 11 19  1  6  0  0  0
 19 20  1  0  0  0  0
 15 21  2  0  0  0  0
 16 22  2  0  0  0  0
 17 23  1  6  0  0  0
 23 24  1  0  0  0  0
 24 25  1  0  0  0  0
 24 26  2  0  0  0  0
 25 27  1  0  0  0  0
 25 28  1  0  0  0  0
 28 29  1  0  0  0  0
 13 30  1  1  0  0  0
 12 31  1  6  0  0  0
 21 32  1  0  0  0  0
 19 33  1  0  0  0  0
M  END
>  <cdx:fragmentId>
5

$$$$
