99764.cdx
  Mrv1902 05222410192D          

 29 30  0  0  0  0            999 V2000
    3.9418   -7.4903    0.0000 C   0  0  2  0  0  0  0  0  0  0  0  0
    3.2280   -7.9039    0.0000 C   0  0  2  0  0  0  0  0  0  0  0  0
    3.2292   -8.7289    0.0000 C   0  0  1  0  0  0  0  0  0  0  0  0
    3.9443   -9.1403    0.0000 C   0  0  2  0  0  0  0  0  0  0  0  0
    4.6582   -8.7267    0.0000 C   0  0  1  0  0  0  0  0  0  0  0  0
    4.6569   -7.9017    0.0000 O   0  0  0  0  0  0  0  0  0  0  0  0
    3.9406   -6.6653    0.0000 C   0  0  0  0  0  0  0  0  0  0  0  0
    2.5154   -9.1425    0.0000 O   0  0  0  0  0  0  0  0  0  0  0  0
    5.3733   -9.1382    0.0000 O   0  0  0  0  0  0  0  0  0  0  0  0
    2.5129   -7.4925    0.0000 O   0  0  0  0  0  0  0  0  0  0  0  0
    3.9456   -9.9653    0.0000 O   0  0  0  0  0  0  0  0  0  0  0  0
    3.2255   -6.2539    0.0000 O   0  0  0  0  0  0  0  0  0  0  0  0
    6.0871   -8.7246    0.0000 C   0  0  0  0  0  0  0  0  0  0  0  0
    6.8022   -9.1360    0.0000 C   0  0  1  0  0  0  0  0  0  0  0  0
    6.8022   -9.9610    0.0000 C   0  0  0  0  0  0  0  0  0  0  0  0
    6.0877  -10.3735    0.0000 O   0  0  0  0  0  0  0  0  0  0  0  0
    7.5164   -8.7230    0.0000 O   0  0  0  0  0  0  0  0  0  0  0  0
    8.2311   -9.1349    0.0000 C   0  0  0  0  0  0  0  0  0  0  0  0
    8.2311   -9.9599    0.0000 C   0  0  0  0  0  0  0  0  0  0  0  0
    8.9456  -10.3724    0.0000 C   0  0  0  0  0  0  0  0  0  0  0  0
    9.6601   -9.9599    0.0000 C   0  0  0  0  0  0  0  0  0  0  0  0
    9.6601   -9.1349    0.0000 C   0  0  0  0  0  0  0  0  0  0  0  0
    8.9456   -8.7224    0.0000 C   0  0  0  0  0  0  0  0  0  0  0  0
    8.9456   -7.8974    0.0000 O   0  0  0  0  0  0  0  0  0  0  0  0
    8.2311   -7.4849    0.0000 C   0  0  0  0  0  0  0  0  0  0  0  0
   10.3746  -10.3724    0.0000 C   0  0  0  0  0  0  0  0  0  0  0  0
   11.0890   -9.9599    0.0000 C   0  0  0  0  0  0  0  0  0  0  0  0
   11.8035  -10.3724    0.0000 C   0  0  0  0  0  0  0  0  0  0  0  0
   12.5180   -9.9599    0.0000 O   0  0  0  0  0  0  0  0  0  0  0  0
  1  2  1  0  0  0  0
  2  3  1  0  0  0  0
  3  4  1  0  0  0  0
  4  5  1  0  0  0  0
  5  6  1  0  0  0  0
  6  1  1  0  0  0  0
  1  7  1  1  0  0  0
  3  8  1  1  0  0  0
  5  9  1  1  0  0  0
  2 10  1  6  0  0  0
  4 11  1  6  0  0  0
  7 12  1  0  0  0  0
  9 13  1  0  0  0  0
 13 14  1  0  0  0  0
 14 15  1  0  0  0  0
 15 16  1  0  0  0  0
 14 17  1  6  0  0  0
 17 18  1  0  0  0  0
 18 19  2  0  0  0  0
 19 20  1  0  0  0  0
 20 21  2  0  0  0  0
 21 22  1  0  0  0  0
 22 23  2  0  0  0  0
 23 18  1  0  0  0  0
 23 24  1  0  0  0  0
 24 25  1  0  0  0  0
 21 26  1  0  0  0  0
 26 27  2  0  0  0  0
 27 28  1  0  0  0  0
 28 29  1  0  0  0  0
M  END
>  <cdx:fragmentId>
336

$$$$
