99768.cdx
  Mrv1902 05222410262D          

 37 39  0  0  0  0            999 V2000
    9.1944   -7.3057    0.0000 C   0  0  0  0  0  0  0  0  0  0  0  0
    9.9064   -7.7223    0.0000 C   0  0  1  0  0  0  0  0  0  0  0  0
    8.4775   -7.7140    0.0000 C   0  0  0  0  0  0  0  0  0  0  0  0
    8.4727   -8.5390    0.0000 C   0  0  0  0  0  0  0  0  0  0  0  0
    7.7558   -8.9473    0.0000 C   0  0  0  0  0  0  0  0  0  0  0  0
    7.0438   -8.5307    0.0000 C   0  0  0  0  0  0  0  0  0  0  0  0
    7.0486   -7.7057    0.0000 C   0  0  0  0  0  0  0  0  0  0  0  0
    7.7654   -7.2974    0.0000 C   0  0  0  0  0  0  0  0  0  0  0  0
    7.7510   -9.7723    0.0000 O   0  0  0  0  0  0  0  0  0  0  0  0
    8.4631  -10.1890    0.0000 C   0  0  0  0  0  0  0  0  0  0  0  0
    6.3269   -8.9390    0.0000 O   0  0  0  0  0  0  0  0  0  0  0  0
    9.9016   -8.5473    0.0000 C   0  0  0  0  0  0  0  0  0  0  0  0
    5.6203   -8.5320    0.0000 C   0  0  1  0  0  0  0  0  0  0  0  0
    4.9063   -8.9451    0.0000 C   0  0  1  0  0  0  0  0  0  0  0  0
    5.6195   -7.7070    0.0000 C   0  0  0  0  0  0  0  0  0  0  0  0
    4.1914   -8.5333    0.0000 C   0  0  0  0  0  0  0  0  0  0  0  0
    4.1902   -7.7083    0.0000 C   0  0  0  0  0  0  0  0  0  0  0  0
    3.4752   -7.2968    0.0000 C   0  0  0  0  0  0  0  0  0  0  0  0
    2.7613   -7.7083    0.0000 C   0  0  0  0  0  0  0  0  0  0  0  0
    2.7613   -8.5333    0.0000 C   0  0  0  0  0  0  0  0  0  0  0  0
    3.4752   -8.9448    0.0000 C   0  0  0  0  0  0  0  0  0  0  0  0
    2.0469   -7.2956    0.0000 O   0  0  0  0  0  0  0  0  0  0  0  0
    2.0469   -8.9461    0.0000 O   0  0  0  0  0  0  0  0  0  0  0  0
    1.3323   -8.5338    0.0000 C   0  0  0  0  0  0  0  0  0  0  0  0
    4.9051   -7.2945    0.0000 O   0  0  0  0  0  0  0  0  0  0  0  0
    9.1992   -6.4807    0.0000 O   0  0  0  0  0  0  0  0  0  0  0  0
   10.6233   -7.3140    0.0000 C   0  0  0  0  0  0  0  0  0  0  0  0
   10.6137   -8.9640    0.0000 O   0  0  0  0  0  0  0  0  0  0  0  0
   11.3329   -7.7348    0.0000 C   0  0  0  0  0  0  0  0  0  0  0  0
   12.0521   -7.3140    0.0000 C   0  0  0  0  0  0  0  0  0  0  0  0
   12.0521   -6.4890    0.0000 C   0  0  0  0  0  0  0  0  0  0  0  0
   11.3329   -6.0683    0.0000 C   0  0  0  0  0  0  0  0  0  0  0  0
   10.6233   -6.4890    0.0000 C   0  0  0  0  0  0  0  0  0  0  0  0
   12.7678   -6.0786    0.0000 O   0  0  0  0  0  0  0  0  0  0  0  0
   12.7678   -7.7244    0.0000 O   0  0  0  0  0  0  0  0  0  0  0  0
   13.4811   -7.3099    0.0000 C   0  0  0  0  0  0  0  0  0  0  0  0
    4.9070   -9.7701    0.0000 O   0  0  0  0  0  0  0  0  0  0  0  0
  1  2  1  0  0  0  0
  3  4  1  0  0  0  0
  4  5  2  0  0  0  0
  5  6  1  0  0  0  0
  6  7  2  0  0  0  0
  7  8  1  0  0  0  0
  3  8  2  0  0  0  0
  9 10  1  0  0  0  0
  5  9  1  0  0  0  0
  6 11  1  0  0  0  0
  1  3  1  0  0  0  0
  2 12  1  6  0  0  0
 13 11  1  1  0  0  0
 13 14  1  0  0  0  0
 13 15  1  0  0  0  0
 14 16  1  0  0  0  0
 16 17  2  0  0  0  0
 17 18  1  0  0  0  0
 18 19  2  0  0  0  0
 19 20  1  0  0  0  0
 20 21  2  0  0  0  0
 21 16  1  0  0  0  0
 19 22  1  0  0  0  0
 20 23  1  0  0  0  0
 23 24  1  0  0  0  0
 15 25  1  0  0  0  0
  1 26  2  0  0  0  0
  2 27  1  0  0  0  0
 12 28  1  0  0  0  0
 27 29  2  0  0  0  0
 29 30  1  0  0  0  0
 30 31  2  0  0  0  0
 31 32  1  0  0  0  0
 32 33  2  0  0  0  0
 33 27  1  0  0  0  0
 31 34  1  0  0  0  0
 30 35  1  0  0  0  0
 35 36  1  0  0  0  0
 14 37  1  6  0  0  0
M  END
>  <cdx:fragmentId>
13

$$$$
