99765.cdx
  Mrv1902 05222410192D          

 38 40  0  0  0  0            999 V2000
    2.5080  -11.3575    0.0000 C   0  0  2  0  0  0  0  0  0  0  0  0
    1.7935  -10.9450    0.0000 C   0  0  2  0  0  0  0  0  0  0  0  0
    1.7935  -10.1200    0.0000 C   0  0  1  0  0  0  0  0  0  0  0  0
    2.5080   -9.7075    0.0000 C   0  0  2  0  0  0  0  0  0  0  0  0
    3.2224  -10.1200    0.0000 O   0  0  0  0  0  0  0  0  0  0  0  0
    3.2224  -10.9450    0.0000 C   0  0  1  0  0  0  0  0  0  0  0  0
    1.0790   -9.7075    0.0000 O   0  0  0  0  0  0  0  0  0  0  0  0
    1.7935   -8.4700    0.0000 O   0  0  0  0  0  0  0  0  0  0  0  0
    2.5080   -8.8825    0.0000 C   0  0  0  0  0  0  0  0  0  0  0  0
    3.9369  -11.3575    0.0000 O   0  0  0  0  0  0  0  0  0  0  0  0
    2.5080  -12.1825    0.0000 O   0  0  0  0  0  0  0  0  0  0  0  0
    5.3658  -11.3575    0.0000 C   0  0  0  0  0  0  0  0  0  0  0  0
    4.6514  -10.9450    0.0000 C   0  0  0  0  0  0  0  0  0  0  0  0
    6.0803  -10.9450    0.0000 C   0  0  0  0  0  0  0  0  0  0  0  0
    6.0803  -10.1200    0.0000 C   0  0  0  0  0  0  0  0  0  0  0  0
    5.3658   -9.7075    0.0000 C   0  0  0  0  0  0  0  0  0  0  0  0
    4.6514  -10.1200    0.0000 C   0  0  0  0  0  0  0  0  0  0  0  0
    6.7948   -8.8825    0.0000 O   0  0  0  0  0  0  0  0  0  0  0  0
   10.3671   -8.4700    0.0000 C   0  0  0  0  0  0  0  0  0  0  0  0
    9.6527   -8.8825    0.0000 O   0  0  0  0  0  0  0  0  0  0  0  0
   13.2250  -10.9450    0.0000 O   0  0  0  0  0  0  0  0  0  0  0  0
   12.5106  -11.3575    0.0000 C   0  0  0  0  0  0  0  0  0  0  0  0
   11.7961  -10.9450    0.0000 C   0  0  0  0  0  0  0  0  0  0  0  0
   11.0816  -11.3575    0.0000 C   0  0  0  0  0  0  0  0  0  0  0  0
    9.6527  -11.3575    0.0000 C   0  0  0  0  0  0  0  0  0  0  0  0
   10.3671  -10.9450    0.0000 C   0  0  0  0  0  0  0  0  0  0  0  0
   10.3671  -10.1200    0.0000 C   0  0  0  0  0  0  0  0  0  0  0  0
    9.6527   -9.7075    0.0000 C   0  0  0  0  0  0  0  0  0  0  0  0
    6.7948  -11.3575    0.0000 O   0  0  0  0  0  0  0  0  0  0  0  0
    8.9382  -10.9450    0.0000 C   0  0  0  0  0  0  0  0  0  0  0  0
    8.9382  -10.1200    0.0000 C   0  0  0  0  0  0  0  0  0  0  0  0
    8.2237   -9.7075    0.0000 O   0  0  0  0  0  0  0  0  0  0  0  0
    7.5093  -10.9450    0.0000 C   0  0  0  0  0  0  0  0  0  0  0  0
    3.9369   -9.7075    0.0000 O   0  0  0  0  0  0  0  0  0  0  0  0
    3.9369   -8.8825    0.0000 C   0  0  0  0  0  0  0  0  0  0  0  0
    7.5093  -10.1200    0.0000 C   0  0  2  0  0  0  0  0  0  0  0  0
    6.7948   -9.7075    0.0000 C   0  0  2  0  0  0  0  0  0  0  0  0
    1.0790  -11.3575    0.0000 O   0  0  0  0  0  0  0  0  0  0  0  0
  1  2  1  0  0  0  0
  2  3  1  0  0  0  0
  3  4  1  0  0  0  0
  4  5  1  0  0  0  0
  5  6  1  0  0  0  0
  6  1  1  0  0  0  0
  3  7  1  6  0  0  0
  8  9  1  0  0  0  0
  4  9  1  1  0  0  0
  6 10  1  1  0  0  0
  1 11  1  6  0  0  0
 12 13  2  0  0  0  0
 13 10  1  0  0  0  0
 12 14  1  0  0  0  0
 14 15  2  0  0  0  0
 15 16  1  0  0  0  0
 16 17  2  0  0  0  0
 17 13  1  0  0  0  0
 37 18  1  6  0  0  0
 20 19  1  0  0  0  0
 15 37  1  0  0  0  0
 28 20  1  0  0  0  0
 22 21  1  0  0  0  0
 23 22  1  0  0  0  0
 24 23  1  0  0  0  0
 26 24  1  0  0  0  0
 25 30  1  0  0  0  0
 26 25  2  0  0  0  0
 27 26  1  0  0  0  0
 28 27  2  0  0  0  0
 31 28  1  0  0  0  0
 29 33  1  0  0  0  0
 31 30  2  0  0  0  0
 32 31  1  0  0  0  0
 36 32  1  6  0  0  0
 36 33  1  0  0  0  0
 37 36  1  0  0  0  0
 17 34  1  0  0  0  0
 34 35  1  0  0  0  0
  2 38  1  1  0  0  0
M  END
>  <cdx:fragmentId>
5

$$$$
