99763.cdx
  Mrv1902 05222410182D          

 29 30  0  0  0  0            999 V2000
    5.2709  -10.9397    0.0000 C   0  0  2  0  0  0  0  0  0  0  0  0
    5.2709  -11.7647    0.0000 C   0  0  2  0  0  0  0  0  0  0  0  0
    5.9854  -12.1772    0.0000 C   0  0  1  0  0  0  0  0  0  0  0  0
    6.6999  -11.7647    0.0000 C   0  0  2  0  0  0  0  0  0  0  0  0
    6.6999  -10.9397    0.0000 C   0  0  1  0  0  0  0  0  0  0  0  0
    5.9854  -10.5272    0.0000 O   0  0  0  0  0  0  0  0  0  0  0  0
    4.5564  -10.5272    0.0000 C   0  0  0  0  0  0  0  0  0  0  0  0
    5.9854  -13.0022    0.0000 O   0  0  0  0  0  0  0  0  0  0  0  0
    7.4143  -10.5272    0.0000 O   0  0  0  0  0  0  0  0  0  0  0  0
    4.5564  -12.1772    0.0000 O   0  0  0  0  0  0  0  0  0  0  0  0
    7.4143  -12.1772    0.0000 O   0  0  0  0  0  0  0  0  0  0  0  0
    3.8420  -10.9397    0.0000 O   0  0  0  0  0  0  0  0  0  0  0  0
    7.4143   -9.7022    0.0000 C   0  0  0  0  0  0  0  0  0  0  0  0
    8.1288   -9.2897    0.0000 C   0  0  0  0  0  0  0  0  0  0  0  0
    8.8433   -9.7022    0.0000 C   0  0  0  0  0  0  0  0  0  0  0  0
    8.1288   -8.4647    0.0000 O   0  0  0  0  0  0  0  0  0  0  0  0
    8.8433  -10.5272    0.0000 O   0  0  0  0  0  0  0  0  0  0  0  0
    7.4160   -8.0493    0.0000 C   0  0  0  0  0  0  0  0  0  0  0  0
    7.4194   -7.2243    0.0000 C   0  0  0  0  0  0  0  0  0  0  0  0
    6.7066   -6.8089    0.0000 C   0  0  0  0  0  0  0  0  0  0  0  0
    5.9904   -7.2185    0.0000 C   0  0  0  0  0  0  0  0  0  0  0  0
    5.9871   -8.0435    0.0000 C   0  0  0  0  0  0  0  0  0  0  0  0
    6.6999   -8.4589    0.0000 C   0  0  0  0  0  0  0  0  0  0  0  0
    8.1355   -6.8147    0.0000 O   0  0  0  0  0  0  0  0  0  0  0  0
    8.8483   -7.2301    0.0000 C   0  0  0  0  0  0  0  0  0  0  0  0
    5.2776   -6.8032    0.0000 C   0  0  0  0  0  0  0  0  0  0  0  0
    4.5615   -7.2128    0.0000 C   0  0  0  0  0  0  0  0  0  0  0  0
    3.8487   -6.7974    0.0000 C   0  0  0  0  0  0  0  0  0  0  0  0
    3.1326   -7.2070    0.0000 O   0  0  0  0  0  0  0  0  0  0  0  0
  1  2  1  0  0  0  0
  2  3  1  0  0  0  0
  3  4  1  0  0  0  0
  4  5  1  0  0  0  0
  5  6  1  0  0  0  0
  6  1  1  0  0  0  0
  1  7  1  1  0  0  0
  3  8  1  1  0  0  0
  5  9  1  1  0  0  0
  2 10  1  6  0  0  0
  4 11  1  6  0  0  0
  7 12  1  0  0  0  0
  9 13  1  0  0  0  0
 13 14  1  0  0  0  0
 14 15  1  0  0  0  0
 16 14  1  1  0  0  0
 15 17  1  0  0  0  0
 16 18  1  0  0  0  0
 18 19  2  0  0  0  0
 19 20  1  0  0  0  0
 20 21  2  0  0  0  0
 21 22  1  0  0  0  0
 22 23  2  0  0  0  0
 23 18  1  0  0  0  0
 19 24  1  0  0  0  0
 24 25  1  0  0  0  0
 21 26  1  0  0  0  0
 26 27  2  0  0  0  0
 27 28  1  0  0  0  0
 28 29  2  0  0  0  0
M  END
>  <cdx:fragmentId>
336

$$$$
