99761.cdx
  Mrv1902 05222410182D          

 63 72  0  0  0  0            999 V2000
    6.5362   -5.5413    0.0000 C   0  0  0  0  0  0  0  0  0  0  0  0
    6.5362   -6.3662    0.0000 C   0  0  0  0  0  0  0  0  0  0  0  0
    7.2506   -6.7788    0.0000 C   0  0  0  0  0  0  0  0  0  0  0  0
    7.9651   -6.3662    0.0000 C   0  0  0  0  0  0  0  0  0  0  0  0
    7.9651   -5.5413    0.0000 C   0  0  0  0  0  0  0  0  0  0  0  0
    7.2506   -5.1287    0.0000 C   0  0  0  0  0  0  0  0  0  0  0  0
    8.6796   -6.7788    0.0000 C   0  0  1  0  0  0  0  0  0  0  0  0
    9.3941   -6.3662    0.0000 C   0  0  2  0  0  0  0  0  0  0  0  0
    9.3941   -5.5413    0.0000 C   0  0  2  0  0  0  0  0  0  0  0  0
    8.6796   -5.1287    0.0000 O   0  0  0  0  0  0  0  0  0  0  0  0
   10.1085   -6.7788    0.0000 O   0  0  0  0  0  0  0  0  0  0  0  0
   10.8230   -5.5413    0.0000 C   0  0  0  0  0  0  0  0  0  0  0  0
   10.1085   -5.1287    0.0000 C   0  0  0  0  0  0  0  0  0  0  0  0
   11.5375   -5.1287    0.0000 C   0  0  0  0  0  0  0  0  0  0  0  0
   11.5375   -4.3037    0.0000 C   0  0  0  0  0  0  0  0  0  0  0  0
   10.8230   -3.8912    0.0000 C   0  0  0  0  0  0  0  0  0  0  0  0
   10.1085   -4.3037    0.0000 C   0  0  0  0  0  0  0  0  0  0  0  0
   10.4116   -7.7550    0.0000 C   0  0  0  0  0  0  0  0  0  0  0  0
   10.4201   -8.5800    0.0000 C   0  0  0  0  0  0  0  0  0  0  0  0
   11.1388   -8.9851    0.0000 C   0  0  0  0  0  0  0  0  0  0  0  0
   11.8489   -8.5652    0.0000 C   0  0  0  0  0  0  0  0  0  0  0  0
   11.8489   -7.7402    0.0000 C   0  0  0  0  0  0  0  0  0  0  0  0
   11.1388   -7.3351    0.0000 C   0  0  0  0  0  0  0  0  0  0  0  0
   11.1366   -6.5101    0.0000 O   0  0  0  0  0  0  0  0  0  0  0  0
   12.5655   -8.9740    0.0000 O   0  0  0  0  0  0  0  0  0  0  0  0
    9.7099   -8.9998    0.0000 O   0  0  0  0  0  0  0  0  0  0  0  0
    9.7099   -9.8248    0.0000 C   0  0  1  0  0  0  0  0  0  0  0  0
   10.4201  -10.2299    0.0000 C   0  0  2  0  0  0  0  0  0  0  0  0
   11.1388   -9.8100    0.0000 C   0  0  0  0  0  0  0  0  0  0  0  0
    8.9965  -10.2391    0.0000 C   0  0  0  0  0  0  0  0  0  0  0  0
    8.2799   -9.8304    0.0000 C   0  0  0  0  0  0  0  0  0  0  0  0
    7.5676  -10.2391    0.0000 C   0  0  0  0  0  0  0  0  0  0  0  0
    7.5676  -11.0641    0.0000 C   0  0  0  0  0  0  0  0  0  0  0  0
    8.2799  -11.4729    0.0000 C   0  0  0  0  0  0  0  0  0  0  0  0
    8.9965  -11.0641    0.0000 C   0  0  0  0  0  0  0  0  0  0  0  0
    6.8537   -9.8257    0.0000 O   0  0  0  0  0  0  0  0  0  0  0  0
    6.8537  -11.4775    0.0000 O   0  0  0  0  0  0  0  0  0  0  0  0
    5.8217   -5.1287    0.0000 O   0  0  0  0  0  0  0  0  0  0  0  0
    7.2506   -7.6037    0.0000 O   0  0  0  0  0  0  0  0  0  0  0  0
    5.2717   -7.0675    0.0000 C   0  0  2  0  0  0  0  0  0  0  0  0
    4.5660   -6.6401    0.0000 C   0  0  0  0  0  0  0  0  0  0  0  0
    3.8431   -7.0376    0.0000 C   0  0  0  0  0  0  0  0  0  0  0  0
    3.8258   -7.8624    0.0000 O   0  0  0  0  0  0  0  0  0  0  0  0
    4.5315   -8.2898    0.0000 C   0  0  1  0  0  0  0  0  0  0  0  0
    5.2544   -7.8923    0.0000 C   0  0  2  0  0  0  0  0  0  0  0  0
    4.5833   -5.8153    0.0000 C   0  0  0  0  0  0  0  0  0  0  0  0
    3.8776   -5.3880    0.0000 C   0  0  0  0  0  0  0  0  0  0  0  0
    3.1547   -5.7854    0.0000 C   0  0  0  0  0  0  0  0  0  0  0  0
    3.1374   -6.6102    0.0000 C   0  0  0  0  0  0  0  0  0  0  0  0
    4.5142   -9.1146    0.0000 C   0  0  0  0  0  0  0  0  0  0  0  0
    3.7913   -9.5121    0.0000 C   0  0  0  0  0  0  0  0  0  0  0  0
    3.7740  -10.3369    0.0000 C   0  0  0  0  0  0  0  0  0  0  0  0
    4.4797  -10.7642    0.0000 C   0  0  0  0  0  0  0  0  0  0  0  0
    5.2027  -10.3668    0.0000 C   0  0  0  0  0  0  0  0  0  0  0  0
    5.2199   -9.5420    0.0000 C   0  0  0  0  0  0  0  0  0  0  0  0
    3.0511  -10.7343    0.0000 O   0  0  0  0  0  0  0  0  0  0  0  0
    4.4625  -11.5891    0.0000 O   0  0  0  0  0  0  0  0  0  0  0  0
    2.4490   -5.3581    0.0000 O   0  0  0  0  0  0  0  0  0  0  0  0
    5.3062   -5.4179    0.0000 O   0  0  0  0  0  0  0  0  0  0  0  0
    5.9601   -8.3197    0.0000 O   0  0  0  0  0  0  0  0  0  0  0  0
   12.2519   -5.5413    0.0000 O   0  0  0  0  0  0  0  0  0  0  0  0
   12.2519   -3.8912    0.0000 O   0  0  0  0  0  0  0  0  0  0  0  0
   10.4243  -11.0549    0.0000 O   0  0  0  0  0  0  0  0  0  0  0  0
  1  2  2  0  0  0  0
  2  3  1  0  0  0  0
  3  4  2  0  0  0  0
  4  5  1  0  0  0  0
  5  6  2  0  0  0  0
  6  1  1  0  0  0  0
  4  7  1  0  0  0  0
  7  8  1  0  0  0  0
  8  9  1  0  0  0  0
  9 10  1  0  0  0  0
 10  5  1  0  0  0  0
  8 11  1  6  0  0  0
 12 13  2  0  0  0  0
  9 13  1  6  0  0  0
 12 14  1  0  0  0  0
 14 15  2  0  0  0  0
 15 16  1  0  0  0  0
 16 17  2  0  0  0  0
 17 13  1  0  0  0  0
  7 18  1  1  0  0  0
 18 19  2  0  0  0  0
 19 20  1  0  0  0  0
 20 21  2  0  0  0  0
 21 22  1  0  0  0  0
 22 23  2  0  0  0  0
 23 18  1  0  0  0  0
 23 24  1  0  0  0  0
  9 24  1  1  0  0  0
 21 25  1  0  0  0  0
 19 26  1  0  0  0  0
 26 27  1  0  0  0  0
 27 28  1  0  0  0  0
 28 29  1  0  0  0  0
 29 20  1  0  0  0  0
 27 30  1  1  0  0  0
 30 31  2  0  0  0  0
 31 32  1  0  0  0  0
 32 33  2  0  0  0  0
 33 34  1  0  0  0  0
 34 35  2  0  0  0  0
 35 30  1  0  0  0  0
 32 36  1  0  0  0  0
 33 37  1  0  0  0  0
  1 38  1  0  0  0  0
  3 39  1  0  0  0  0
 40  2  1  1  0  0  0
 40 41  1  0  0  0  0
 41 42  2  0  0  0  0
 42 43  1  0  0  0  0
 43 44  1  0  0  0  0
 44 45  1  0  0  0  0
 45 40  1  0  0  0  0
 41 46  1  0  0  0  0
 46 47  2  0  0  0  0
 47 48  1  0  0  0  0
 48 49  2  0  0  0  0
 49 42  1  0  0  0  0
 44 50  1  1  0  0  0
 50 51  2  0  0  0  0
 51 52  1  0  0  0  0
 52 53  2  0  0  0  0
 53 54  1  0  0  0  0
 54 55  2  0  0  0  0
 55 50  1  0  0  0  0
 52 56  1  0  0  0  0
 53 57  1  0  0  0  0
 48 58  1  0  0  0  0
 46 59  1  0  0  0  0
 45 60  1  1  0  0  0
 14 61  1  0  0  0  0
 15 62  1  0  0  0  0
 28 63  1  6  0  0  0
M  END
>  <cdx:fragmentId>
5

$$$$
