99769.cdx
  Mrv1902 05222410272D          

 45 47  0  0  0  0            999 V2000
    8.1401   -6.4866    0.0000 C   0  0  1  0  0  0  0  0  0  0  0  0
    7.4269   -6.9013    0.0000 C   0  0  0  0  0  0  0  0  0  0  0  0
    7.4295   -7.7263    0.0000 C   0  0  2  0  0  0  0  0  0  0  0  0
    8.1452   -8.1366    0.0000 C   0  0  1  0  0  0  0  0  0  0  0  0
    8.8584   -7.7219    0.0000 C   0  0  1  0  0  0  0  0  0  0  0  0
    8.8559   -6.8969    0.0000 C   0  0  0  0  0  0  0  0  0  0  0  0
    9.5742   -8.1322    0.0000 O   0  0  0  0  0  0  0  0  0  0  0  0
    8.5504   -5.7709    0.0000 C   0  0  0  0  0  0  0  0  0  0  0  0
    8.1478   -8.9616    0.0000 O   0  0  0  0  0  0  0  0  0  0  0  0
    6.7163   -8.1410    0.0000 O   0  0  0  0  0  0  0  0  0  0  0  0
    8.1357   -5.0577    0.0000 O   0  0  0  0  0  0  0  0  0  0  0  0
    9.3754   -5.7683    0.0000 O   0  0  0  0  0  0  0  0  0  0  0  0
   10.3088  -11.8499    0.0000 C   0  0  0  0  0  0  0  0  0  0  0  0
   10.3107  -12.6749    0.0000 C   0  0  0  0  0  0  0  0  0  0  0  0
    9.5972  -13.0891    0.0000 C   0  0  0  0  0  0  0  0  0  0  0  0
    8.8818  -12.6783    0.0000 C   0  0  0  0  0  0  0  0  0  0  0  0
    8.8798  -11.8533    0.0000 C   0  0  0  0  0  0  0  0  0  0  0  0
    9.5933  -11.4391    0.0000 C   0  0  0  0  0  0  0  0  0  0  0  0
   11.0261  -13.0858    0.0000 O   0  0  0  0  0  0  0  0  0  0  0  0
    9.5992  -13.9141    0.0000 O   0  0  0  0  0  0  0  0  0  0  0  0
    9.5914  -10.6141    0.0000 C   0  0  0  0  0  0  0  0  0  0  0  0
    8.8759  -10.2033    0.0000 C   0  0  0  0  0  0  0  0  0  0  0  0
    8.8740   -9.3783    0.0000 C   0  0  0  0  0  0  0  0  0  0  0  0
    9.5875   -8.9641    0.0000 O   0  0  0  0  0  0  0  0  0  0  0  0
    7.7276   -5.7721    0.0000 O   0  0  0  0  0  0  0  0  0  0  0  0
    6.7188   -8.9660    0.0000 C   0  0  0  0  0  0  0  0  0  0  0  0
    6.0056   -9.3807    0.0000 C   0  0  0  0  0  0  0  0  0  0  0  0
    7.4346   -9.3763    0.0000 O   0  0  0  0  0  0  0  0  0  0  0  0
    6.0082  -10.2057    0.0000 C   0  0  0  0  0  0  0  0  0  0  0  0
    5.2950  -10.6204    0.0000 C   0  0  0  0  0  0  0  0  0  0  0  0
    5.2976  -11.4454    0.0000 O   0  0  0  0  0  0  0  0  0  0  0  0
    4.5793  -10.2101    0.0000 O   0  0  0  0  0  0  0  0  0  0  0  0
    6.9026   -5.7721    0.0000 C   0  0  0  0  0  0  0  0  0  0  0  0
    6.4901   -5.0577    0.0000 C   0  0  0  0  0  0  0  0  0  0  0  0
    6.4901   -6.4866    0.0000 O   0  0  0  0  0  0  0  0  0  0  0  0
    5.6651   -5.0577    0.0000 C   0  0  0  0  0  0  0  0  0  0  0  0
    5.2526   -4.3432    0.0000 C   0  0  0  0  0  0  0  0  0  0  0  0
    5.6651   -3.6287    0.0000 C   0  0  0  0  0  0  0  0  0  0  0  0
    5.2526   -2.9143    0.0000 C   0  0  0  0  0  0  0  0  0  0  0  0
    4.4276   -2.9143    0.0000 C   0  0  0  0  0  0  0  0  0  0  0  0
    4.0151   -3.6287    0.0000 C   0  0  0  0  0  0  0  0  0  0  0  0
    4.4276   -4.3432    0.0000 C   0  0  0  0  0  0  0  0  0  0  0  0
    4.0151   -2.1998    0.0000 O   0  0  0  0  0  0  0  0  0  0  0  0
    5.6651   -2.1998    0.0000 O   0  0  0  0  0  0  0  0  0  0  0  0
    4.5844  -11.8601    0.0000 C   0  0  0  0  0  0  0  0  0  0  0  0
  1  2  1  0  0  0  0
  2  3  1  0  0  0  0
  3  4  1  0  0  0  0
  4  5  1  0  0  0  0
  5  6  1  0  0  0  0
  6  1  1  0  0  0  0
  5  7  1  1  0  0  0
  1  8  1  0  0  0  0
  4  9  1  1  0  0  0
  3 10  1  6  0  0  0
  1 25  1  1  0  0  0
  8 11  2  0  0  0  0
  8 12  1  0  0  0  0
 13 14  2  0  0  0  0
 14 15  1  0  0  0  0
 15 16  2  0  0  0  0
 16 17  1  0  0  0  0
 17 18  2  0  0  0  0
 18 13  1  0  0  0  0
 14 19  1  0  0  0  0
 15 20  1  0  0  0  0
 18 21  1  0  0  0  0
 21 22  2  0  0  0  0
 22 23  1  0  0  0  0
 23 24  2  0  0  0  0
 23  9  1  0  0  0  0
 10 26  1  0  0  0  0
 26 27  1  0  0  0  0
 26 28  2  0  0  0  0
 27 29  1  0  0  0  0
 29 30  1  0  0  0  0
 30 31  1  0  0  0  0
 30 32  2  0  0  0  0
 25 33  1  0  0  0  0
 33 34  1  0  0  0  0
 33 35  2  0  0  0  0
 34 36  2  0  0  0  0
 36 37  1  0  0  0  0
 37 38  2  0  0  0  0
 38 39  1  0  0  0  0
 39 40  2  0  0  0  0
 40 41  1  0  0  0  0
 41 42  2  0  0  0  0
 42 37  1  0  0  0  0
 40 43  1  0  0  0  0
 39 44  1  0  0  0  0
 31 45  1  0  0  0  0
M  END
>  <cdx:fragmentId>
5

$$$$
