99766.cdx
  Mrv1902 05222410202D          

 38 40  0  0  0  0            999 V2000
    3.7031  -12.8150    0.0000 O   0  0  0  0  0  0  0  0  0  0  0  0
    5.1321  -12.8150    0.0000 C   0  0  0  0  0  0  0  0  0  0  0  0
    4.4176  -12.4025    0.0000 C   0  0  0  0  0  0  0  0  0  0  0  0
    5.8466  -12.4025    0.0000 C   0  0  0  0  0  0  0  0  0  0  0  0
    5.8466  -11.5775    0.0000 C   0  0  0  0  0  0  0  0  0  0  0  0
    5.1321  -11.1650    0.0000 C   0  0  0  0  0  0  0  0  0  0  0  0
    4.4176  -11.5775    0.0000 C   0  0  0  0  0  0  0  0  0  0  0  0
    6.5610  -11.1650    0.0000 C   0  0  2  0  0  0  0  0  0  0  0  0
    6.5610  -10.3400    0.0000 C   0  0  1  0  0  0  0  0  0  0  0  0
    5.8466   -9.9275    0.0000 C   0  0  0  0  0  0  0  0  0  0  0  0
    7.2755   -9.9275    0.0000 O   0  0  0  0  0  0  0  0  0  0  0  0
    7.2755   -9.1025    0.0000 C   0  0  0  0  0  0  0  0  0  0  0  0
    6.5610   -8.6900    0.0000 C   0  0  0  0  0  0  0  0  0  0  0  0
    5.8466   -9.1025    0.0000 O   0  0  0  0  0  0  0  0  0  0  0  0
    7.9900   -8.6900    0.0000 C   0  0  0  0  0  0  0  0  0  0  0  0
    7.9900   -7.8650    0.0000 C   0  0  0  0  0  0  0  0  0  0  0  0
    7.2755   -7.4525    0.0000 C   0  0  0  0  0  0  0  0  0  0  0  0
    6.5610   -7.8650    0.0000 C   0  0  0  0  0  0  0  0  0  0  0  0
    7.2755   -6.6275    0.0000 C   0  0  0  0  0  0  0  0  0  0  0  0
    7.9900   -6.2150    0.0000 C   0  0  0  0  0  0  0  0  0  0  0  0
    7.9900   -5.3900    0.0000 C   0  0  0  0  0  0  0  0  0  0  0  0
    8.7044   -4.9775    0.0000 O   0  0  0  0  0  0  0  0  0  0  0  0
    8.7044   -9.1025    0.0000 O   0  0  0  0  0  0  0  0  0  0  0  0
    9.4189   -8.6900    0.0000 C   0  0  0  0  0  0  0  0  0  0  0  0
    3.7031  -11.1650    0.0000 O   0  0  0  0  0  0  0  0  0  0  0  0
    3.7031  -10.3400    0.0000 C   0  0  0  0  0  0  0  0  0  0  0  0
    7.2755  -11.5775    0.0000 O   0  0  0  0  0  0  0  0  0  0  0  0
    8.5131  -12.2906    0.0000 C   0  0  2  0  0  0  0  0  0  0  0  0
    8.9242  -13.0059    0.0000 C   0  0  2  0  0  0  0  0  0  0  0  0
    8.5102  -13.7195    0.0000 C   0  0  1  0  0  0  0  0  0  0  0  0
    7.6852  -13.7178    0.0000 C   0  0  2  0  0  0  0  0  0  0  0  0
    7.2742  -13.0025    0.0000 O   0  0  0  0  0  0  0  0  0  0  0  0
    7.6881  -12.2889    0.0000 C   0  0  1  0  0  0  0  0  0  0  0  0
    8.9213  -14.4348    0.0000 O   0  0  0  0  0  0  0  0  0  0  0  0
    7.6823  -15.1467    0.0000 O   0  0  0  0  0  0  0  0  0  0  0  0
    7.2713  -14.4314    0.0000 C   0  0  0  0  0  0  0  0  0  0  0  0
    8.9271  -11.5769    0.0000 O   0  0  0  0  0  0  0  0  0  0  0  0
    9.7492  -13.0075    0.0000 O   0  0  0  0  0  0  0  0  0  0  0  0
  2  3  2  0  0  0  0
  3  1  1  0  0  0  0
  2  4  1  0  0  0  0
  4  5  2  0  0  0  0
  5  6  1  0  0  0  0
  6  7  2  0  0  0  0
  7  3  1  0  0  0  0
  5  8  1  0  0  0  0
  8  9  1  0  0  0  0
  9 10  1  1  0  0  0
  9 11  1  0  0  0  0
 11 12  1  0  0  0  0
 12 13  2  0  0  0  0
 14 10  1  0  0  0  0
 12 15  1  0  0  0  0
 15 16  2  0  0  0  0
 16 17  1  0  0  0  0
 17 18  2  0  0  0  0
 18 13  1  0  0  0  0
 17 19  1  0  0  0  0
 19 20  1  0  0  0  0
 20 21  1  0  0  0  0
 21 22  1  0  0  0  0
 15 23  1  0  0  0  0
 23 24  1  0  0  0  0
  7 25  1  0  0  0  0
 25 26  1  0  0  0  0
  8 27  1  6  0  0  0
 28 29  1  0  0  0  0
 29 30  1  0  0  0  0
 30 31  1  0  0  0  0
 31 32  1  0  0  0  0
 32 33  1  0  0  0  0
 33 28  1  0  0  0  0
 30 34  1  6  0  0  0
 35 36  1  0  0  0  0
 31 36  1  1  0  0  0
 28 37  1  6  0  0  0
 29 38  1  1  0  0  0
 33 27  1  1  0  0  0
M  END
>  <cdx:fragmentId>
5

$$$$
