99767.cdx
  Mrv1902 05222410202D          

 22 24  0  0  0  0            999 V2000
    4.3631   -8.7455    0.0000 C   0  0  0  0  0  0  0  0  0  0  0  0
    3.9506   -9.4600    0.0000 C   0  0  0  0  0  0  0  0  0  0  0  0
    4.3631  -10.1745    0.0000 C   0  0  0  0  0  0  0  0  0  0  0  0
    5.1881  -10.1745    0.0000 C   0  0  0  0  0  0  0  0  0  0  0  0
    5.6006   -9.4600    0.0000 C   0  0  0  0  0  0  0  0  0  0  0  0
    5.1881   -8.7455    0.0000 C   0  0  0  0  0  0  0  0  0  0  0  0
    3.1256   -9.4600    0.0000 O   0  0  0  0  0  0  0  0  0  0  0  0
    6.4256   -9.4600    0.0000 C   0  0  0  0  0  0  0  0  0  0  0  0
    6.8381   -8.7455    0.0000 C   0  0  2  0  0  0  0  0  0  0  0  0
    7.6586   -8.6593    0.0000 C   0  0  2  0  0  0  0  0  0  0  0  0
    7.8302   -7.8523    0.0000 C   0  0  1  0  0  0  0  0  0  0  0  0
    7.1157   -7.4398    0.0000 O   0  0  0  0  0  0  0  0  0  0  0  0
    6.5026   -7.9919    0.0000 C   0  0  0  0  0  0  0  0  0  0  0  0
    8.2107   -9.2724    0.0000 C   0  0  0  0  0  0  0  0  0  0  0  0
    9.0176   -9.1009    0.0000 O   0  0  0  0  0  0  0  0  0  0  0  0
    8.5838   -7.5168    0.0000 C   0  0  0  0  0  0  0  0  0  0  0  0
    9.2513   -8.0017    0.0000 C   0  0  0  0  0  0  0  0  0  0  0  0
   10.0049   -7.6661    0.0000 C   0  0  0  0  0  0  0  0  0  0  0  0
   10.0912   -6.8456    0.0000 C   0  0  0  0  0  0  0  0  0  0  0  0
    9.4237   -6.3607    0.0000 C   0  0  0  0  0  0  0  0  0  0  0  0
    8.6701   -6.6963    0.0000 C   0  0  0  0  0  0  0  0  0  0  0  0
   10.8449   -6.5101    0.0000 O   0  0  0  0  0  0  0  0  0  0  0  0
  1  2  2  0  0  0  0
  2  3  1  0  0  0  0
  3  4  2  0  0  0  0
  4  5  1  0  0  0  0
  5  6  2  0  0  0  0
  6  1  1  0  0  0  0
  2  7  1  0  0  0  0
  5  8  1  0  0  0  0
  9  8  1  1  0  0  0
  9 10  1  0  0  0  0
 10 11  1  0  0  0  0
 11 12  1  0  0  0  0
 12 13  1  0  0  0  0
 13  9  1  0  0  0  0
 10 14  1  6  0  0  0
 14 15  1  0  0  0  0
 11 16  1  1  0  0  0
 16 17  2  0  0  0  0
 17 18  1  0  0  0  0
 18 19  2  0  0  0  0
 19 20  1  0  0  0  0
 20 21  2  0  0  0  0
 21 16  1  0  0  0  0
 19 22  1  0  0  0  0
M  END
>  <cdx:fragmentId>
5

$$$$
