99762.cdx
  Mrv1902 05222410182D          

 27 31  0  0  0  0            999 V2000
    5.0237   -7.1913    0.0000 C   0  0  0  0  0  0  0  0  0  0  0  0
    5.0237   -8.0162    0.0000 C   0  0  0  0  0  0  0  0  0  0  0  0
    5.7381   -8.4288    0.0000 C   0  0  0  0  0  0  0  0  0  0  0  0
    6.4526   -8.0162    0.0000 C   0  0  0  0  0  0  0  0  0  0  0  0
    6.4526   -7.1913    0.0000 C   0  0  0  0  0  0  0  0  0  0  0  0
    5.7381   -6.7788    0.0000 C   0  0  0  0  0  0  0  0  0  0  0  0
    7.1671   -8.4288    0.0000 C   0  0  2  0  0  0  0  0  0  0  0  0
    7.8816   -8.0162    0.0000 N   0  0  0  0  0  0  0  0  0  0  0  0
    7.8816   -7.1913    0.0000 C   0  0  0  0  0  0  0  0  0  0  0  0
    7.1671   -6.7788    0.0000 C   0  0  0  0  0  0  0  0  0  0  0  0
    8.5960   -6.7788    0.0000 C   0  0  0  0  0  0  0  0  0  0  0  0
    8.5960   -5.9538    0.0000 C   0  0  0  0  0  0  0  0  0  0  0  0
    7.8816   -5.5413    0.0000 C   0  0  0  0  0  0  0  0  0  0  0  0
    7.1671   -5.9538    0.0000 C   0  0  0  0  0  0  0  0  0  0  0  0
    9.3105   -7.1913    0.0000 C   0  0  0  0  0  0  0  0  0  0  0  0
   10.0250   -6.7788    0.0000 C   0  0  0  0  0  0  0  0  0  0  0  0
   10.0250   -5.9538    0.0000 C   0  0  0  0  0  0  0  0  0  0  0  0
    9.3105   -5.5413    0.0000 C   0  0  0  0  0  0  0  0  0  0  0  0
   10.8096   -7.0337    0.0000 O   0  0  0  0  0  0  0  0  0  0  0  0
   11.2945   -6.3662    0.0000 C   0  0  0  0  0  0  0  0  0  0  0  0
   10.8096   -5.6988    0.0000 O   0  0  0  0  0  0  0  0  0  0  0  0
    4.3092   -8.4288    0.0000 O   0  0  0  0  0  0  0  0  0  0  0  0
    5.7381   -9.2538    0.0000 O   0  0  0  0  0  0  0  0  0  0  0  0
    6.4526   -9.6662    0.0000 C   0  0  0  0  0  0  0  0  0  0  0  0
    8.5960   -8.4288    0.0000 C   0  0  0  0  0  0  0  0  0  0  0  0
    7.1671   -9.2538    0.0000 C   0  0  0  0  0  0  0  0  0  0  0  0
    7.8816   -9.6662    0.0000 O   0  0  0  0  0  0  0  0  0  0  0  0
  1  2  2  0  0  0  0
  2  3  1  0  0  0  0
  3  4  2  0  0  0  0
  4  5  1  0  0  0  0
  5  6  2  0  0  0  0
  6  1  1  0  0  0  0
  4  7  1  0  0  0  0
  7  8  1  0  0  0  0
  8  9  1  0  0  0  0
  9 10  2  0  0  0  0
 10  5  1  0  0  0  0
  9 11  1  0  0  0  0
 11 12  2  0  0  0  0
 12 13  1  0  0  0  0
 13 14  2  0  0  0  0
 14 10  1  0  0  0  0
 11 15  1  0  0  0  0
 15 16  2  0  0  0  0
 16 17  1  0  0  0  0
 17 18  2  0  0  0  0
 18 12  1  0  0  0  0
 16 19  1  0  0  0  0
 19 20  1  0  0  0  0
 20 21  1  0  0  0  0
 21 17  1  0  0  0  0
  2 22  1  0  0  0  0
  3 23  1  0  0  0  0
 23 24  1  0  0  0  0
  8 25  1  0  0  0  0
  7 26  1  6  0  0  0
 26 27  1  0  0  0  0
M  END
>  <cdx:fragmentId>
5

$$$$
