99774.cdx
  Mrv1902 05222410192D          

 37 41  0  0  0  0            999 V2000
    5.8074   -6.2012    0.0000 C   0  0  0  0  0  0  0  0  0  0  0  0
    5.8074   -7.0263    0.0000 C   0  0  0  0  0  0  0  0  0  0  0  0
    6.5219   -7.4387    0.0000 C   0  0  0  0  0  0  0  0  0  0  0  0
    7.2364   -7.0263    0.0000 C   0  0  0  0  0  0  0  0  0  0  0  0
    7.2364   -6.2012    0.0000 C   0  0  0  0  0  0  0  0  0  0  0  0
    6.5219   -5.7888    0.0000 O   0  0  0  0  0  0  0  0  0  0  0  0
    7.9508   -7.4387    0.0000 C   0  0  0  0  0  0  0  0  0  0  0  0
    8.6653   -7.0263    0.0000 C   0  0  0  0  0  0  0  0  0  0  0  0
    8.6653   -6.2012    0.0000 C   0  0  0  0  0  0  0  0  0  0  0  0
    7.9508   -5.7888    0.0000 C   0  0  0  0  0  0  0  0  0  0  0  0
    6.5219   -8.2637    0.0000 O   0  0  0  0  0  0  0  0  0  0  0  0
    5.0930   -5.7888    0.0000 C   0  0  0  0  0  0  0  0  0  0  0  0
    4.3785   -6.2012    0.0000 O   0  0  0  0  0  0  0  0  0  0  0  0
    5.0930   -4.9637    0.0000 O   0  0  0  0  0  0  0  0  0  0  0  0
    4.3785   -4.5512    0.0000 C   0  0  0  0  0  0  0  0  0  0  0  0
    9.3798   -7.4387    0.0000 O   0  0  0  0  0  0  0  0  0  0  0  0
    8.6611   -9.4990    0.0000 C   0  0  2  0  0  0  0  0  0  0  0  0
    9.3758   -9.9112    0.0000 C   0  0  2  0  0  0  0  0  0  0  0  0
   10.0901   -9.4984    0.0000 C   0  0  1  0  0  0  0  0  0  0  0  0
   10.0897   -8.6734    0.0000 C   0  0  2  0  0  0  0  0  0  0  0  0
    9.3751   -8.2612    0.0000 C   0  0  1  0  0  0  0  0  0  0  0  0
    8.6608   -8.6740    0.0000 O   0  0  0  0  0  0  0  0  0  0  0  0
    7.9468   -9.9118    0.0000 C   0  0  0  0  0  0  0  0  0  0  0  0
   10.8047   -9.9106    0.0000 O   0  0  0  0  0  0  0  0  0  0  0  0
    9.3761  -10.7362    0.0000 O   0  0  0  0  0  0  0  0  0  0  0  0
   10.8040   -8.2606    0.0000 O   0  0  0  0  0  0  0  0  0  0  0  0
    7.9472  -10.7368    0.0000 O   0  0  0  0  0  0  0  0  0  0  0  0
    5.0930   -7.4387    0.0000 C   0  0  0  0  0  0  0  0  0  0  0  0
    4.3785   -7.0263    0.0000 C   0  0  0  0  0  0  0  0  0  0  0  0
    3.6640   -7.4387    0.0000 C   0  0  0  0  0  0  0  0  0  0  0  0
    3.6640   -8.2637    0.0000 C   0  0  0  0  0  0  0  0  0  0  0  0
    4.3785   -8.6762    0.0000 C   0  0  0  0  0  0  0  0  0  0  0  0
    5.0930   -8.2637    0.0000 C   0  0  0  0  0  0  0  0  0  0  0  0
    2.9495   -8.6762    0.0000 O   0  0  0  0  0  0  0  0  0  0  0  0
    2.9495   -9.5013    0.0000 C   0  0  0  0  0  0  0  0  0  0  0  0
    3.6640   -9.9138    0.0000 C   0  0  0  0  0  0  0  0  0  0  0  0
    4.3785   -9.5013    0.0000 O   0  0  0  0  0  0  0  0  0  0  0  0
  1  2  2  0  0  0  0
  2  3  1  0  0  0  0
  3  4  1  0  0  0  0
  4  5  2  0  0  0  0
  5  6  1  0  0  0  0
  6  1  1  0  0  0  0
  4  7  1  0  0  0  0
  7  8  2  0  0  0  0
  8  9  1  0  0  0  0
  9 10  2  0  0  0  0
 10  5  1  0  0  0  0
  3 11  2  0  0  0  0
  1 12  1  0  0  0  0
 12 13  2  0  0  0  0
 12 14  1  0  0  0  0
 14 15  1  0  0  0  0
  8 16  1  0  0  0  0
 17 18  1  0  0  0  0
 18 19  1  0  0  0  0
 19 20  1  0  0  0  0
 20 21  1  0  0  0  0
 21 22  1  0  0  0  0
 22 17  1  0  0  0  0
 17 23  1  1  0  0  0
 19 24  1  1  0  0  0
 18 25  1  6  0  0  0
 20 26  1  6  0  0  0
 23 27  1  0  0  0  0
 21 16  1  1  0  0  0
  2 28  1  0  0  0  0
 28 29  2  0  0  0  0
 29 30  1  0  0  0  0
 30 31  2  0  0  0  0
 31 32  1  0  0  0  0
 32 33  2  0  0  0  0
 33 28  1  0  0  0  0
 31 34  1  0  0  0  0
 34 35  1  0  0  0  0
 35 36  1  0  0  0  0
 36 37  1  0  0  0  0
 37 32  1  0  0  0  0
M  END
>  <cdx:fragmentId>
5

$$$$
