99779.cdx
  Mrv1902 05222410272D          

 66 74  0  0  0  0            999 V2000
   15.0940  -11.5494    0.0000 C   0  0  1  0  0  0  0  0  0  0  0  0
   15.8084  -11.1369    0.0000 C   0  0  2  0  0  0  0  0  0  0  0  0
   16.5930  -11.3919    0.0000 C   0  0  0  0  0  0  0  0  0  0  0  0
   17.0780  -10.7244    0.0000 C   0  0  2  0  0  0  0  0  0  0  0  0
   17.8626  -10.4695    0.0000 O   0  0  0  0  0  0  0  0  0  0  0  0
   17.8626   -9.6445    0.0000 C   0  0  2  0  0  0  0  0  0  0  0  0
   17.0780   -9.3895    0.0000 C   0  0  2  0  0  0  0  0  0  0  0  0
   16.5930  -10.0570    0.0000 C   0  0  2  0  0  0  0  0  0  0  0  0
   15.8084  -10.3119    0.0000 C   0  0  1  0  0  0  0  0  0  0  0  0
   15.0940   -9.8994    0.0000 C   0  0  0  0  0  0  0  0  0  0  0  0
   14.3795  -10.3119    0.0000 C   0  0  0  0  0  0  0  0  0  0  0  0
   14.3795  -11.1369    0.0000 C   0  0  2  0  0  0  0  0  0  0  0  0
   13.6650  -11.5494    0.0000 C   0  0  1  0  0  0  0  0  0  0  0  0
   12.9505  -11.1369    0.0000 C   0  0  1  0  0  0  0  0  0  0  0  0
   12.2361  -11.5494    0.0000 C   0  0  0  0  0  0  0  0  0  0  0  0
   12.2361  -12.3744    0.0000 C   0  0  1  0  0  0  0  0  0  0  0  0
   12.9505  -12.7869    0.0000 C   0  0  0  0  0  0  0  0  0  0  0  0
   13.6650  -12.3744    0.0000 C   0  0  0  0  0  0  0  0  0  0  0  0
   14.3795  -12.7869    0.0000 C   0  0  0  0  0  0  0  0  0  0  0  0
   15.0940  -12.3744    0.0000 C   0  0  0  0  0  0  0  0  0  0  0  0
   17.7764   -8.8240    0.0000 O   0  0  0  0  0  0  0  0  0  0  0  0
   18.6163   -9.9800    0.0000 C   0  0  0  0  0  0  0  0  0  0  0  0
   19.2837   -9.4951    0.0000 C   0  0  0  0  0  0  0  0  0  0  0  0
   19.1975   -8.6746    0.0000 C   0  0  2  0  0  0  0  0  0  0  0  0
   18.4438   -8.3391    0.0000 C   0  0  0  0  0  0  0  0  0  0  0  0
   13.6650  -10.7244    0.0000 C   0  0  0  0  0  0  0  0  0  0  0  0
   15.8084   -9.4869    0.0000 C   0  0  0  0  0  0  0  0  0  0  0  0
   16.8230   -8.6049    0.0000 C   0  0  0  0  0  0  0  0  0  0  0  0
   19.8649   -8.1897    0.0000 C   0  0  0  0  0  0  0  0  0  0  0  0
   15.0940  -10.7244    0.0000 H   0  0  0  0  0  0  0  0  0  0  0  0
   15.8084  -11.9619    0.0000 H   0  0  0  0  0  0  0  0  0  0  0  0
   17.5629  -11.3919    0.0000 H   0  0  0  0  0  0  0  0  0  0  0  0
   16.2314   -9.3155    0.0000 H   0  0  0  0  0  0  0  0  0  0  0  0
   14.3795  -11.9619    0.0000 H   0  0  0  0  0  0  0  0  0  0  0  0
   11.5216  -12.7869    0.0000 O   0  0  0  0  0  0  0  0  0  0  0  0
   10.8071  -12.3744    0.0000 C   0  0  2  0  0  0  0  0  0  0  0  0
   10.8071  -11.5494    0.0000 O   0  0  0  0  0  0  0  0  0  0  0  0
   10.0927  -11.1369    0.0000 C   0  0  1  0  0  0  0  0  0  0  0  0
    9.3782  -11.5494    0.0000 C   0  0  2  0  0  0  0  0  0  0  0  0
    9.3782  -12.3744    0.0000 C   0  0  1  0  0  0  0  0  0  0  0  0
   10.0927  -12.7869    0.0000 C   0  0  1  0  0  0  0  0  0  0  0  0
   10.0927  -10.3119    0.0000 C   0  0  0  0  0  0  0  0  0  0  0  0
    8.6637  -12.7869    0.0000 O   0  0  0  0  0  0  0  0  0  0  0  0
   10.0927  -13.6119    0.0000 O   0  0  0  0  0  0  0  0  0  0  0  0
    8.6637  -11.1369    0.0000 O   0  0  0  0  0  0  0  0  0  0  0  0
    9.3782   -9.8994    0.0000 O   0  0  0  0  0  0  0  0  0  0  0  0
   12.9505  -10.3119    0.0000 O   0  0  0  0  0  0  0  0  0  0  0  0
    7.8387  -11.1327    0.0000 C   0  0  2  0  0  0  0  0  0  0  0  0
    7.4299  -10.4161    0.0000 O   0  0  0  0  0  0  0  0  0  0  0  0
    6.6049  -10.4118    0.0000 C   0  0  0  0  0  0  0  0  0  0  0  0
    6.1887  -11.1241    0.0000 C   0  0  2  0  0  0  0  0  0  0  0  0
    6.5975  -11.8407    0.0000 C   0  0  1  0  0  0  0  0  0  0  0  0
    7.4225  -11.8450    0.0000 C   0  0  1  0  0  0  0  0  0  0  0  0
    6.1813  -12.5530    0.0000 O   0  0  0  0  0  0  0  0  0  0  0  0
    7.8313  -12.5616    0.0000 O   0  0  0  0  0  0  0  0  0  0  0  0
    5.3638  -11.1198    0.0000 O   0  0  0  0  0  0  0  0  0  0  0  0
    9.3782  -14.0244    0.0000 C   0  0  2  0  0  0  0  0  0  0  0  0
    8.6637  -13.6119    0.0000 O   0  0  0  0  0  0  0  0  0  0  0  0
    7.9492  -14.0244    0.0000 C   0  0  2  0  0  0  0  0  0  0  0  0
    7.9492  -14.8494    0.0000 C   0  0  1  0  0  0  0  0  0  0  0  0
    8.6637  -15.2619    0.0000 C   0  0  2  0  0  0  0  0  0  0  0  0
    9.3782  -14.8494    0.0000 C   0  0  1  0  0  0  0  0  0  0  0  0
    7.2348  -15.2619    0.0000 O   0  0  0  0  0  0  0  0  0  0  0  0
    8.6637  -16.0869    0.0000 O   0  0  0  0  0  0  0  0  0  0  0  0
   10.0927  -15.2619    0.0000 O   0  0  0  0  0  0  0  0  0  0  0  0
    7.2348  -13.6119    0.0000 C   0  0  0  0  0  0  0  0  0  0  0  0
  1  2  1  0  0  0  0
  2  3  1  0  0  0  0
  3  4  1  0  0  0  0
  4  5  1  0  0  0  0
  6  5  1  6  0  0  0
  6  7  1  0  0  0  0
  7  8  1  0  0  0  0
  8  9  1  0  0  0  0
  9 10  1  0  0  0  0
 10 11  1  0  0  0  0
 11 12  1  0  0  0  0
 12 13  1  0  0  0  0
 13 14  1  0  0  0  0
 14 15  1  0  0  0  0
 15 16  1  0  0  0  0
 16 17  1  0  0  0  0
 17 18  1  0  0  0  0
 18 19  2  0  0  0  0
 19 20  1  0  0  0  0
  1 20  1  0  0  0  0
  1 12  1  0  0  0  0
 13 18  1  0  0  0  0
  2  9  1  0  0  0  0
  4  8  1  0  0  0  0
 22 23  1  0  0  0  0
 23 24  1  0  0  0  0
 24 25  1  0  0  0  0
 21 25  1  0  0  0  0
  6 21  1  0  0  0  0
  6 22  1  0  0  0  0
 13 26  1  1  0  0  0
  9 27  1  1  0  0  0
  7 28  1  6  0  0  0
 24 29  1  6  0  0  0
 16 35  1  1  0  0  0
  1 30  1  1  0  0  0
  2 31  1  6  0  0  0
  4 32  1  6  0  0  0
  8 33  1  6  0  0  0
 12 34  1  6  0  0  0
 36 35  1  1  0  0  0
 36 37  1  0  0  0  0
 37 38  1  0  0  0  0
 38 39  1  0  0  0  0
 39 40  1  0  0  0  0
 40 41  1  0  0  0  0
 41 36  1  0  0  0  0
 38 42  1  1  0  0  0
 40 43  1  1  0  0  0
 41 44  1  6  0  0  0
 39 45  1  6  0  0  0
 42 46  1  0  0  0  0
 14 47  1  1  0  0  0
 48 45  1  1  0  0  0
 48 49  1  0  0  0  0
 49 50  1  0  0  0  0
 50 51  1  0  0  0  0
 51 52  1  0  0  0  0
 52 53  1  0  0  0  0
 53 48  1  0  0  0  0
 52 54  1  1  0  0  0
 53 55  1  6  0  0  0
 51 56  1  6  0  0  0
 57 44  1  1  0  0  0
 57 58  1  0  0  0  0
 58 59  1  0  0  0  0
 59 60  1  0  0  0  0
 60 61  1  0  0  0  0
 61 62  1  0  0  0  0
 62 57  1  0  0  0  0
 60 63  1  1  0  0  0
 61 64  1  6  0  0  0
 62 65  1  6  0  0  0
 59 66  1  6  0  0  0
M  END
>  <cdx:fragmentId>
198565

$$$$
