99775.cdx
  Mrv1902 05222410182D          

 27 29  0  0  0  0            999 V2000
    6.4812   -9.2813    0.0000 C   0  0  0  0  0  0  0  0  0  0  0  0
    5.7667   -8.8688    0.0000 C   0  0  0  0  0  0  0  0  0  0  0  0
    5.7667   -8.0437    0.0000 C   0  0  0  0  0  0  0  0  0  0  0  0
    6.4812   -7.6313    0.0000 C   0  0  0  0  0  0  0  0  0  0  0  0
    7.1956   -8.0437    0.0000 C   0  0  0  0  0  0  0  0  0  0  0  0
    7.9101   -7.6313    0.0000 C   0  0  0  0  0  0  0  0  0  0  0  0
    8.6246   -8.0437    0.0000 C   0  0  0  0  0  0  0  0  0  0  0  0
    8.6246   -8.8688    0.0000 C   0  0  0  0  0  0  0  0  0  0  0  0
    7.9101   -9.2813    0.0000 C   0  0  0  0  0  0  0  0  0  0  0  0
    7.1956   -8.8688    0.0000 C   0  0  0  0  0  0  0  0  0  0  0  0
    5.0522   -7.6313    0.0000 O   0  0  0  0  0  0  0  0  0  0  0  0
    5.7761   -5.5557    0.0000 C   0  0  2  0  0  0  0  0  0  0  0  0
    5.0609   -5.1444    0.0000 C   0  0  2  0  0  0  0  0  0  0  0  0
    4.3471   -5.5582    0.0000 C   0  0  1  0  0  0  0  0  0  0  0  0
    4.3485   -6.3832    0.0000 C   0  0  2  0  0  0  0  0  0  0  0  0
    5.0637   -6.7944    0.0000 C   0  0  1  0  0  0  0  0  0  0  0  0
    5.7775   -6.3807    0.0000 O   0  0  0  0  0  0  0  0  0  0  0  0
    6.4898   -5.1420    0.0000 C   0  0  0  0  0  0  0  0  0  0  0  0
    3.6320   -5.1469    0.0000 O   0  0  0  0  0  0  0  0  0  0  0  0
    5.0595   -4.3194    0.0000 O   0  0  0  0  0  0  0  0  0  0  0  0
    3.6348   -6.7969    0.0000 O   0  0  0  0  0  0  0  0  0  0  0  0
    6.4884   -4.3170    0.0000 O   0  0  0  0  0  0  0  0  0  0  0  0
    7.1956   -7.2188    0.0000 C   0  0  0  0  0  0  0  0  0  0  0  0
    5.0522   -9.2813    0.0000 C   0  0  0  0  0  0  0  0  0  0  0  0
    4.3378   -8.8688    0.0000 C   0  0  0  0  0  0  0  0  0  0  0  0
    5.0522  -10.1063    0.0000 C   0  0  0  0  0  0  0  0  0  0  0  0
    6.4812  -10.1063    0.0000 C   0  0  0  0  0  0  0  0  0  0  0  0
  1  2  1  0  0  0  0
  2  3  2  0  0  0  0
  3  4  1  0  0  0  0
  4  5  1  0  0  0  0
  5  6  1  0  0  0  0
  6  7  1  0  0  0  0
  7  8  1  0  0  0  0
  8  9  1  0  0  0  0
  9 10  1  0  0  0  0
  1 10  1  0  0  0  0
  5 10  1  0  0  0  0
  3 11  1  0  0  0  0
 12 13  1  0  0  0  0
 13 14  1  0  0  0  0
 14 15  1  0  0  0  0
 15 16  1  0  0  0  0
 16 17  1  0  0  0  0
 17 12  1  0  0  0  0
 12 18  1  1  0  0  0
 14 19  1  1  0  0  0
 13 20  1  6  0  0  0
 15 21  1  6  0  0  0
 18 22  1  0  0  0  0
 16 11  1  1  0  0  0
  5 23  1  0  0  0  0
  2 24  1  0  0  0  0
 24 25  1  0  0  0  0
 24 26  2  0  0  0  0
  1 27  2  0  0  0  0
M  END
>  <cdx:fragmentId>
5

$$$$
