99776.cdx
  Mrv1902 05222410182D          

 31 33  0  0  0  0            999 V2000
    8.2041   -8.7845    0.0000 O   0  0  0  0  0  0  0  0  0  0  0  0
    7.4789   -7.5533    0.0000 C   0  0  0  0  0  0  0  0  0  0  0  0
    7.4861   -8.3783    0.0000 C   0  0  1  0  0  0  0  0  0  0  0  0
    6.7753   -8.7970    0.0000 C   0  0  1  0  0  0  0  0  0  0  0  0
    6.0572   -8.3907    0.0000 C   0  0  0  0  0  0  0  0  0  0  0  0
    5.3464   -8.8094    0.0000 C   0  0  0  0  0  0  0  0  0  0  0  0
    4.6283   -8.4032    0.0000 C   0  0  0  0  0  0  0  0  0  0  0  0
    4.6211   -7.5782    0.0000 C   0  0  0  0  0  0  0  0  0  0  0  0
    5.3320   -7.1595    0.0000 C   0  0  0  0  0  0  0  0  0  0  0  0
    6.0500   -7.5657    0.0000 C   0  0  0  0  0  0  0  0  0  0  0  0
    6.7609   -7.1470    0.0000 O   0  0  0  0  0  0  0  0  0  0  0  0
    3.9175   -8.8219    0.0000 C   0  0  0  0  0  0  0  0  0  0  0  0
    3.9247   -9.6468    0.0000 C   0  0  0  0  0  0  0  0  0  0  0  0
    4.6427  -10.0531    0.0000 C   0  0  0  0  0  0  0  0  0  0  0  0
    5.3536   -9.6344    0.0000 O   0  0  0  0  0  0  0  0  0  0  0  0
    4.6499  -10.8781    0.0000 O   0  0  0  0  0  0  0  0  0  0  0  0
    7.8852   -6.8352    0.0000 C   0  0  0  0  0  0  0  0  0  0  0  0
    8.3039   -7.5461    0.0000 C   0  0  0  0  0  0  0  0  0  0  0  0
    6.7824   -9.6219    0.0000 O   0  0  0  0  0  0  0  0  0  0  0  0
    7.4874  -10.0329    0.0000 C   0  0  0  0  0  0  0  0  0  0  0  0
    8.1975   -9.6129    0.0000 O   0  0  0  0  0  0  0  0  0  0  0  0
    6.0716  -10.8654    0.0000 C   0  0  0  0  0  0  0  0  0  0  0  0
    6.7861  -11.2779    0.0000 C   0  0  0  0  0  0  0  0  0  0  0  0
    8.2149  -11.2628    0.0000 C   0  0  0  0  0  0  0  0  0  0  0  0
    7.4961  -10.8578    0.0000 C   0  0  0  0  0  0  0  0  0  0  0  0
    8.9099   -8.4020    0.0000 C   0  0  0  0  0  0  0  0  0  0  0  0
    8.9210   -7.5771    0.0000 O   0  0  0  0  0  0  0  0  0  0  0  0
    9.6188   -8.8240    0.0000 C   0  0  0  0  0  0  0  0  0  0  0  0
   10.3387   -8.4212    0.0000 C   0  0  0  0  0  0  0  0  0  0  0  0
   10.3498   -7.5963    0.0000 C   0  0  0  0  0  0  0  0  0  0  0  0
   11.0476   -8.8433    0.0000 C   0  0  0  0  0  0  0  0  0  0  0  0
  2  3  1  0  0  0  0
  3  4  1  0  0  0  0
  4  5  1  0  0  0  0
  5  6  1  0  0  0  0
  6  7  2  0  0  0  0
  7  8  1  0  0  0  0
  8  9  2  0  0  0  0
  9 10  1  0  0  0  0
  5 10  2  0  0  0  0
 10 11  1  0  0  0  0
  2 11  1  0  0  0  0
 12 13  2  0  0  0  0
 13 14  1  0  0  0  0
 14 15  1  0  0  0  0
 15  6  1  0  0  0  0
 12  7  1  0  0  0  0
 14 16  2  0  0  0  0
  2 17  1  0  0  0  0
  2 18  1  0  0  0  0
  4 19  1  6  0  0  0
  3  1  1  6  0  0  0
 20 21  2  0  0  0  0
 23 22  1  0  0  0  0
 20 25  1  0  0  0  0
 25 23  2  0  0  0  0
 25 24  1  0  0  0  0
 20 19  1  0  0  0  0
 26 27  2  0  0  0  0
 26 28  1  0  0  0  0
 28 29  2  0  0  0  0
 29 30  1  0  0  0  0
 29 31  1  0  0  0  0
 26  1  1  0  0  0  0
M  END
>  <cdx:fragmentId>
21

$$$$
