99783.cdx
  Mrv1902 05222410262D          

 27 30  0  0  0  0            999 V2000
   10.3027   -8.1435    0.0000 C   0  0  0  0  0  0  0  0  0  0  0  0
    9.5889   -7.7299    0.0000 C   0  0  0  0  0  0  0  0  0  0  0  0
    8.8738   -8.1412    0.0000 C   0  0  0  0  0  0  0  0  0  0  0  0
    8.8725   -8.9662    0.0000 C   0  0  0  0  0  0  0  0  0  0  0  0
    9.5863   -9.3799    0.0000 C   0  0  0  0  0  0  0  0  0  0  0  0
   10.3014   -8.9685    0.0000 C   0  0  0  0  0  0  0  0  0  0  0  0
    8.1573   -9.3776    0.0000 C   0  0  2  0  0  0  0  0  0  0  0  0
    8.1561  -10.2026    0.0000 N   0  0  0  0  0  0  0  0  0  0  0  0
    8.8699  -10.6162    0.0000 C   0  0  0  0  0  0  0  0  0  0  0  0
    9.5850  -10.2049    0.0000 C   0  0  0  0  0  0  0  0  0  0  0  0
    7.4435   -8.9640    0.0000 C   0  0  2  0  0  0  0  0  0  0  0  0
    6.7284   -9.3754    0.0000 C   0  0  0  0  0  0  0  0  0  0  0  0
    6.7271  -10.2004    0.0000 C   0  0  0  0  0  0  0  0  0  0  0  0
    7.4409  -10.6140    0.0000 C   0  0  0  0  0  0  0  0  0  0  0  0
    6.0146   -8.9617    0.0000 C   0  0  0  0  0  0  0  0  0  0  0  0
    5.2995   -9.3731    0.0000 C   0  0  0  0  0  0  0  0  0  0  0  0
    5.2982  -10.1981    0.0000 C   0  0  0  0  0  0  0  0  0  0  0  0
    6.0120  -10.6117    0.0000 C   0  0  0  0  0  0  0  0  0  0  0  0
   11.0178   -7.7321    0.0000 O   0  0  0  0  0  0  0  0  0  0  0  0
    9.5902   -6.9049    0.0000 O   0  0  0  0  0  0  0  0  0  0  0  0
    7.4448   -8.1390    0.0000 C   0  0  0  0  0  0  0  0  0  0  0  0
    6.0107  -11.4367    0.0000 O   0  0  0  0  0  0  0  0  0  0  0  0
    4.5831  -10.6095    0.0000 O   0  0  0  0  0  0  0  0  0  0  0  0
    5.2956  -11.8481    0.0000 C   0  0  0  0  0  0  0  0  0  0  0  0
    3.8692  -10.1959    0.0000 C   0  0  0  0  0  0  0  0  0  0  0  0
    3.1541  -10.6073    0.0000 C   0  0  0  0  0  0  0  0  0  0  0  0
    8.1586   -8.5526    0.0000 H   0  0  0  0  0  0  0  0  0  0  0  0
  1  2  2  0  0  0  0
  2  3  1  0  0  0  0
  3  4  2  0  0  0  0
  4  5  1  0  0  0  0
  5  6  2  0  0  0  0
  6  1  1  0  0  0  0
  4  7  1  0  0  0  0
  7  8  1  0  0  0  0
  8  9  1  0  0  0  0
  9 10  1  0  0  0  0
 10  5  1  0  0  0  0
  7 11  1  0  0  0  0
 11 12  1  0  0  0  0
 12 13  2  0  0  0  0
 13 14  1  0  0  0  0
 14  8  1  0  0  0  0
 12 15  1  0  0  0  0
 15 16  2  0  0  0  0
 16 17  1  0  0  0  0
 17 18  2  0  0  0  0
 18 13  1  0  0  0  0
  1 19  1  0  0  0  0
  2 20  1  0  0  0  0
 11 21  1  6  0  0  0
 18 22  1  0  0  0  0
 17 23  1  0  0  0  0
 22 24  1  0  0  0  0
 23 25  1  0  0  0  0
 25 26  1  0  0  0  0
  7 27  1  1  0  0  0
M  END
>  <cdx:fragmentId>
5

$$$$
