997817.cdx
  Mrv1902 05222410202D          

 70 71  0  0  0  0            999 V2000
    3.6939  -10.8540    0.0000 C   0  0  0  0  0  0  0  0  0  0  0  0
   12.9820  -11.2665    0.0000 C   0  0  0  0  0  0  0  0  0  0  0  0
    6.5518   -8.3790    0.0000 C   0  0  0  0  0  0  0  0  0  0  0  0
    7.2662   -8.7915    0.0000 C   0  0  0  0  0  0  0  0  0  0  0  0
    7.9807   -8.3790    0.0000 C   0  0  0  0  0  0  0  0  0  0  0  0
    8.6952   -8.7915    0.0000 C   0  0  0  0  0  0  0  0  0  0  0  0
    9.4097   -8.3790    0.0000 C   0  0  0  0  0  0  0  0  0  0  0  0
   10.1241   -8.7915    0.0000 C   0  0  0  0  0  0  0  0  0  0  0  0
   10.8386   -8.3790    0.0000 C   0  0  0  0  0  0  0  0  0  0  0  0
   11.5531   -8.7915    0.0000 C   0  0  0  0  0  0  0  0  0  0  0  0
   12.2675   -8.3790    0.0000 C   0  0  0  0  0  0  0  0  0  0  0  0
   12.9820   -8.7915    0.0000 C   0  0  0  0  0  0  0  0  0  0  0  0
   13.6965   -8.3790    0.0000 C   0  0  0  0  0  0  0  0  0  0  0  0
   14.4110   -8.7915    0.0000 C   0  0  0  0  0  0  0  0  0  0  0  0
   15.1254   -8.3790    0.0000 C   0  0  0  0  0  0  0  0  0  0  0  0
   15.8399   -8.7915    0.0000 C   0  0  0  0  0  0  0  0  0  0  0  0
   16.5544   -8.3790    0.0000 C   0  0  0  0  0  0  0  0  0  0  0  0
   17.2688   -8.7915    0.0000 C   0  0  0  0  0  0  0  0  0  0  0  0
   17.9833   -8.3790    0.0000 C   0  0  0  0  0  0  0  0  0  0  0  0
   18.6978   -8.7915    0.0000 C   0  0  0  0  0  0  0  0  0  0  0  0
   17.2688   -9.6165    0.0000 C   0  0  0  0  0  0  0  0  0  0  0  0
   14.4110   -9.6165    0.0000 C   0  0  0  0  0  0  0  0  0  0  0  0
   10.8386   -7.5540    0.0000 C   0  0  0  0  0  0  0  0  0  0  0  0
    7.9807   -7.5540    0.0000 C   0  0  0  0  0  0  0  0  0  0  0  0
   21.5557   -6.3165    0.0000 C   0  0  0  0  0  0  0  0  0  0  0  0
   13.6965   -5.9040    0.0000 C   0  0  0  0  0  0  0  0  0  0  0  0
    6.5518  -10.0290    0.0000 C   0  0  0  0  0  0  0  0  0  0  0  0
    4.7103   -7.6645    0.0000 C   0  0  0  0  0  0  0  0  0  0  0  0
    5.5353   -7.6645    0.0000 C   0  0  0  0  0  0  0  0  0  0  0  0
    4.4084   -8.7915    0.0000 C   0  0  0  0  0  0  0  0  0  0  0  0
    5.1228   -8.3790    0.0000 C   0  0  0  0  0  0  0  0  0  0  0  0
    5.8373   -8.7915    0.0000 C   0  0  0  0  0  0  0  0  0  0  0  0
    5.8373   -9.6165    0.0000 C   0  0  0  0  0  0  0  0  0  0  0  0
    5.1228  -10.0290    0.0000 C   0  0  0  0  0  0  0  0  0  0  0  0
    4.4084   -9.6165    0.0000 C   0  0  1  0  0  0  0  0  0  0  0  0
    3.6939  -10.0290    0.0000 O   0  0  0  0  0  0  0  0  0  0  0  0
    2.9794  -11.2665    0.0000 O   0  0  0  0  0  0  0  0  0  0  0  0
   12.2675  -10.8540    0.0000 C   0  0  0  0  0  0  0  0  0  0  0  0
   11.5531  -11.2665    0.0000 C   0  0  0  0  0  0  0  0  0  0  0  0
   10.8386  -10.8540    0.0000 C   0  0  0  0  0  0  0  0  0  0  0  0
   10.1241  -11.2665    0.0000 C   0  0  0  0  0  0  0  0  0  0  0  0
    9.4097  -10.8540    0.0000 C   0  0  0  0  0  0  0  0  0  0  0  0
    8.6952  -11.2665    0.0000 C   0  0  0  0  0  0  0  0  0  0  0  0
    7.9807  -10.8540    0.0000 C   0  0  0  0  0  0  0  0  0  0  0  0
    7.2662  -11.2665    0.0000 C   0  0  0  0  0  0  0  0  0  0  0  0
    6.5518  -10.8540    0.0000 C   0  0  0  0  0  0  0  0  0  0  0  0
    5.8373  -11.2665    0.0000 C   0  0  0  0  0  0  0  0  0  0  0  0
    5.1228  -10.8540    0.0000 C   0  0  0  0  0  0  0  0  0  0  0  0
    4.4084  -11.2665    0.0000 C   0  0  0  0  0  0  0  0  0  0  0  0
   22.2701   -5.9040    0.0000 O   0  0  0  0  0  0  0  0  0  0  0  0
   14.4110   -6.3165    0.0000 C   0  0  0  0  0  0  0  0  0  0  0  0
   15.1254   -5.9040    0.0000 C   0  0  0  0  0  0  0  0  0  0  0  0
   15.8399   -6.3165    0.0000 C   0  0  0  0  0  0  0  0  0  0  0  0
   16.5544   -5.9040    0.0000 C   0  0  0  0  0  0  0  0  0  0  0  0
   17.2688   -6.3165    0.0000 C   0  0  0  0  0  0  0  0  0  0  0  0
   17.9833   -5.9040    0.0000 C   0  0  0  0  0  0  0  0  0  0  0  0
   18.6978   -6.3165    0.0000 C   0  0  0  0  0  0  0  0  0  0  0  0
   19.4123   -5.9040    0.0000 C   0  0  0  0  0  0  0  0  0  0  0  0
   20.1267   -6.3165    0.0000 C   0  0  0  0  0  0  0  0  0  0  0  0
   20.8412   -5.9040    0.0000 C   0  0  0  0  0  0  0  0  0  0  0  0
   21.5557   -7.1415    0.0000 O   0  0  0  0  0  0  0  0  0  0  0  0
   18.6978   -7.1415    0.0000 C   0  0  0  0  0  0  0  0  0  0  0  0
   20.5392   -9.5059    0.0000 C   0  0  0  0  0  0  0  0  0  0  0  0
   19.7142   -9.5059    0.0000 C   0  0  0  0  0  0  0  0  0  0  0  0
   20.1267   -8.7915    0.0000 C   0  0  0  0  0  0  0  0  0  0  0  0
   20.8412   -8.3790    0.0000 C   0  0  0  0  0  0  0  0  0  0  0  0
   20.8412   -7.5540    0.0000 C   0  0  1  0  0  0  0  0  0  0  0  0
   20.1267   -7.1415    0.0000 C   0  0  0  0  0  0  0  0  0  0  0  0
   19.4123   -7.5540    0.0000 C   0  0  0  0  0  0  0  0  0  0  0  0
   19.4123   -8.3790    0.0000 C   0  0  0  0  0  0  0  0  0  0  0  0
 35 36  1  1  0  0  0
 33 27  1  0  0  0  0
 31 28  1  0  0  0  0
 31 29  1  0  0  0  0
 35 30  1  0  0  0  0
 31 30  1  0  0  0  0
 32 31  1  0  0  0  0
 33 32  2  0  0  0  0
 34 33  1  0  0  0  0
 35 34  1  0  0  0  0
  1 36  1  0  0  0  0
 38  2  1  0  0  0  0
 39 38  1  0  0  0  0
 40 39  1  0  0  0  0
 41 40  1  0  0  0  0
 42 41  1  0  0  0  0
 43 42  1  0  0  0  0
 44 43  1  0  0  0  0
 45 44  1  0  0  0  0
 46 45  1  0  0  0  0
 47 46  1  0  0  0  0
 48 47  1  0  0  0  0
 49 48  1  0  0  0  0
 67 61  1  1  0  0  0
 61 25  1  0  0  0  0
 51 26  1  0  0  0  0
 52 51  1  0  0  0  0
 53 52  1  0  0  0  0
 54 53  1  0  0  0  0
 55 54  1  0  0  0  0
 56 55  1  0  0  0  0
 57 56  1  0  0  0  0
 58 57  1  0  0  0  0
 59 58  1  0  0  0  0
 60 59  1  0  0  0  0
 69 62  1  0  0  0  0
 65 63  1  0  0  0  0
 65 64  1  0  0  0  0
 70 65  1  0  0  0  0
 66 65  1  0  0  0  0
 67 66  1  0  0  0  0
 68 67  1  0  0  0  0
 69 68  1  0  0  0  0
 70 69  2  0  0  0  0
  1 49  1  0  0  0  0
  3  4  2  0  0  0  0
  4  5  1  0  0  0  0
  5  6  2  0  0  0  0
  6  7  1  0  0  0  0
  7  8  2  0  0  0  0
  8  9  1  0  0  0  0
  9 10  2  0  0  0  0
 10 11  1  0  0  0  0
 11 12  2  0  0  0  0
 12 13  1  0  0  0  0
 13 14  2  0  0  0  0
 14 15  1  0  0  0  0
 15 16  2  0  0  0  0
 16 17  1  0  0  0  0
 17 18  2  0  0  0  0
 18 19  1  0  0  0  0
 19 20  2  0  0  0  0
 18 21  1  0  0  0  0
 14 22  1  0  0  0  0
  9 23  1  0  0  0  0
  5 24  1  0  0  0  0
 25 60  1  0  0  0  0
 25 50  2  0  0  0  0
 20 70  1  0  0  0  0
 32  3  1  0  0  0  0
  1 37  2  0  0  0  0
M  END
>  <cdx:fragmentId>
10301

$$$$
