99789.cdx
  Mrv1902 05222410182D          

 38 41  0  0  0  0            999 V2000
    7.6256   -5.0188    0.0000 O   0  0  0  0  0  0  0  0  0  0  0  0
    8.1105   -5.6863    0.0000 C   0  0  0  0  0  0  0  0  0  0  0  0
    7.6256   -6.3537    0.0000 C   0  0  0  0  0  0  0  0  0  0  0  0
    6.8410   -6.0988    0.0000 C   0  0  0  0  0  0  0  0  0  0  0  0
    6.8410   -5.2738    0.0000 C   0  0  0  0  0  0  0  0  0  0  0  0
    6.1265   -6.5113    0.0000 C   0  0  0  0  0  0  0  0  0  0  0  0
    5.4120   -6.0988    0.0000 C   0  0  0  0  0  0  0  0  0  0  0  0
    5.4120   -5.2738    0.0000 C   0  0  0  0  0  0  0  0  0  0  0  0
    6.1265   -4.8613    0.0000 C   0  0  0  0  0  0  0  0  0  0  0  0
    7.8805   -7.1383    0.0000 C   0  0  0  0  0  0  0  0  0  0  0  0
    7.3285   -7.7514    0.0000 O   0  0  0  0  0  0  0  0  0  0  0  0
    8.6875   -7.3099    0.0000 O   0  0  0  0  0  0  0  0  0  0  0  0
    9.7968   -8.2052    0.0000 C   0  0  0  0  0  0  0  0  0  0  0  0
   10.0889   -8.9768    0.0000 C   0  0  0  0  0  0  0  0  0  0  0  0
   10.9032   -9.1095    0.0000 C   0  0  0  0  0  0  0  0  0  0  0  0
   11.1953   -9.8811    0.0000 C   0  0  0  0  0  0  0  0  0  0  0  0
   12.0095  -10.0139    0.0000 C   0  0  0  0  0  0  0  0  0  0  0  0
   12.5316   -9.3751    0.0000 C   0  0  0  0  0  0  0  0  0  0  0  0
   12.2395   -8.6036    0.0000 C   0  0  0  0  0  0  0  0  0  0  0  0
   11.4253   -8.4708    0.0000 C   0  0  0  0  0  0  0  0  0  0  0  0
   13.3459   -9.5079    0.0000 O   0  0  0  0  0  0  0  0  0  0  0  0
   12.3017  -10.7854    0.0000 O   0  0  0  0  0  0  0  0  0  0  0  0
    8.9826   -8.0724    0.0000 C   0  0  0  0  0  0  0  0  0  0  0  0
    8.4604   -8.7112    0.0000 O   0  0  0  0  0  0  0  0  0  0  0  0
    6.1265   -4.0363    0.0000 O   0  0  0  0  0  0  0  0  0  0  0  0
    8.9277   -5.6938    0.0000 C   0  0  0  0  0  0  0  0  0  0  0  0
    9.3337   -6.4120    0.0000 C   0  0  0  0  0  0  0  0  0  0  0  0
   10.1587   -6.4194    0.0000 C   0  0  0  0  0  0  0  0  0  0  0  0
   10.5776   -5.7087    0.0000 C   0  0  0  0  0  0  0  0  0  0  0  0
   10.1716   -4.9905    0.0000 C   0  0  0  0  0  0  0  0  0  0  0  0
    9.3466   -4.9831    0.0000 C   0  0  0  0  0  0  0  0  0  0  0  0
   11.4026   -5.7162    0.0000 O   0  0  0  0  0  0  0  0  0  0  0  0
   10.5647   -7.1376    0.0000 O   0  0  0  0  0  0  0  0  0  0  0  0
    4.6975   -6.5113    0.0000 C   0  0  0  0  0  0  0  0  0  0  0  0
    3.9831   -6.0988    0.0000 C   0  0  0  0  0  0  0  0  0  0  0  0
    3.2686   -6.5113    0.0000 C   0  0  0  0  0  0  0  0  0  0  0  0
    2.5541   -6.0988    0.0000 O   0  0  0  0  0  0  0  0  0  0  0  0
    3.2686   -7.3363    0.0000 O   0  0  0  0  0  0  0  0  0  0  0  0
  1  2  1  0  0  0  0
  2  3  2  0  0  0  0
  3  4  1  0  0  0  0
  4  5  1  0  0  0  0
  1  5  1  0  0  0  0
  6  7  1  0  0  0  0
  7  8  2  0  0  0  0
  8  9  1  0  0  0  0
  9  5  2  0  0  0  0
  6  4  2  0  0  0  0
 10 11  2  0  0  0  0
 10 12  1  0  0  0  0
  3 10  1  0  0  0  0
 13 14  1  0  0  0  0
 15 16  1  0  0  0  0
 16 17  2  0  0  0  0
 17 18  1  0  0  0  0
 18 19  2  0  0  0  0
 19 20  1  0  0  0  0
 15 20  2  0  0  0  0
 18 21  1  0  0  0  0
 17 22  1  0  0  0  0
 14 15  1  0  0  0  0
 23 24  2  0  0  0  0
 13 23  1  0  0  0  0
  9 25  1  0  0  0  0
 26 27  1  0  0  0  0
 27 28  2  0  0  0  0
 28 29  1  0  0  0  0
 29 30  2  0  0  0  0
 30 31  1  0  0  0  0
 26 31  2  0  0  0  0
 29 32  1  0  0  0  0
 28 33  1  0  0  0  0
 26  2  1  0  0  0  0
 23 12  1  0  0  0  0
  7 34  1  0  0  0  0
 34 35  2  0  0  0  0
 35 36  1  0  0  0  0
 36 37  1  0  0  0  0
 36 38  2  0  0  0  0
M  END
>  <cdx:fragmentId>
5

$$$$
