99786.cdx
  Mrv1902 05222410272D          

 59 65  0  0  0  0            999 V2000
    8.2274  -10.0925    0.0000 C   0  0  0  0  0  0  0  0  0  0  0  0
    8.2274  -10.9175    0.0000 C   0  0  1  0  0  0  0  0  0  0  0  0
    8.9419  -11.3300    0.0000 C   0  0  0  0  0  0  0  0  0  0  0  0
    9.6564  -10.9175    0.0000 C   0  0  0  0  0  0  0  0  0  0  0  0
    9.6564  -10.0925    0.0000 C   0  0  2  0  0  0  0  0  0  0  0  0
    8.9419   -9.6800    0.0000 C   0  0  0  0  0  0  0  0  0  0  0  0
   10.3708  -11.3300    0.0000 C   0  0  0  0  0  0  0  0  0  0  0  0
   11.0853  -10.9175    0.0000 C   0  0  0  0  0  0  0  0  0  0  0  0
   11.0853  -10.0925    0.0000 C   0  0  2  0  0  0  0  0  0  0  0  0
   10.3708   -9.6800    0.0000 C   0  0  2  0  0  0  0  0  0  0  0  0
   11.7998   -9.6800    0.0000 C   0  0  2  0  0  0  0  0  0  0  0  0
   11.7998   -8.8550    0.0000 C   0  0  2  0  0  0  0  0  0  0  0  0
   11.0853   -8.4425    0.0000 C   0  0  0  0  0  0  0  0  0  0  0  0
   10.3708   -8.8550    0.0000 C   0  0  0  0  0  0  0  0  0  0  0  0
   12.5844   -9.9349    0.0000 C   0  0  0  0  0  0  0  0  0  0  0  0
   13.0693   -9.2675    0.0000 C   0  0  0  0  0  0  0  0  0  0  0  0
   12.5844   -8.6001    0.0000 C   0  0  2  0  0  0  0  0  0  0  0  0
    7.5130  -11.3300    0.0000 O   0  0  0  0  0  0  0  0  0  0  0  0
    9.6564   -9.2675    0.0000 C   0  0  0  0  0  0  0  0  0  0  0  0
   11.4978  -10.8070    0.0000 H   0  0  0  0  0  0  0  0  0  0  0  0
   12.2123  -10.3945    0.0000 O   0  0  0  0  0  0  0  0  0  0  0  0
   11.8860   -8.0345    0.0000 C   0  0  0  0  0  0  0  0  0  0  0  0
   13.3813   -8.3865    0.0000 C   0  0  0  0  0  0  0  0  0  0  0  0
   10.3708  -10.5050    0.0000 H   0  0  0  0  0  0  0  0  0  0  0  0
   12.5844   -7.7751    0.0000 C   0  0  0  0  0  0  0  0  0  0  0  0
   11.8699   -7.3626    0.0000 C   0  0  0  0  0  0  0  0  0  0  0  0
   13.2989   -7.3626    0.0000 O   0  0  0  0  0  0  0  0  0  0  0  0
   11.8699   -6.5376    0.0000 O   0  0  0  0  0  0  0  0  0  0  0  0
   11.1555   -6.1251    0.0000 C   0  0  0  0  0  0  0  0  0  0  0  0
    6.0863   -9.6642    0.0000 C   0  0  2  0  0  0  0  0  0  0  0  0
    5.3713  -10.0759    0.0000 C   0  0  2  0  0  0  0  0  0  0  0  0
    5.3704  -10.9009    0.0000 C   0  0  2  0  0  0  0  0  0  0  0  0
    6.0844  -11.3141    0.0000 C   0  0  0  0  0  0  0  0  0  0  0  0
    6.7993  -10.9024    0.0000 C   0  0  1  0  0  0  0  0  0  0  0  0
    6.8003  -10.0774    0.0000 O   0  0  0  0  0  0  0  0  0  0  0  0
    6.0872   -8.8392    0.0000 C   0  0  0  0  0  0  0  0  0  0  0  0
    4.6573   -9.6626    0.0000 O   0  0  0  0  0  0  0  0  0  0  0  0
    4.6555  -11.3126    0.0000 O   0  0  0  0  0  0  0  0  0  0  0  0
    4.6546  -12.1376    0.0000 C   0  0  0  0  0  0  0  0  0  0  0  0
    4.6582   -8.8376    0.0000 C   0  0  2  0  0  0  0  0  0  0  0  0
    5.3732   -8.4259    0.0000 O   0  0  0  0  0  0  0  0  0  0  0  0
    5.3741   -7.6009    0.0000 C   0  0  1  0  0  0  0  0  0  0  0  0
    4.6601   -7.1876    0.0000 C   0  0  2  0  0  0  0  0  0  0  0  0
    3.9451   -7.5993    0.0000 C   0  0  2  0  0  0  0  0  0  0  0  0
    3.9442   -8.4243    0.0000 C   0  0  0  0  0  0  0  0  0  0  0  0
    6.0890   -7.1892    0.0000 C   0  0  0  0  0  0  0  0  0  0  0  0
    4.6610   -6.3626    0.0000 O   0  0  0  0  0  0  0  0  0  0  0  0
    3.2311   -7.1860    0.0000 O   0  0  0  0  0  0  0  0  0  0  0  0
    2.5162   -7.5977    0.0000 C   0  0  0  0  0  0  0  0  0  0  0  0
    3.9470   -5.9493    0.0000 C   0  0  2  0  0  0  0  0  0  0  0  0
    3.9479   -5.1243    0.0000 O   0  0  0  0  0  0  0  0  0  0  0  0
    3.2339   -4.7110    0.0000 C   0  0  1  0  0  0  0  0  0  0  0  0
    2.5190   -5.1227    0.0000 C   0  0  2  0  0  0  0  0  0  0  0  0
    2.5180   -5.9477    0.0000 C   0  0  1  0  0  0  0  0  0  0  0  0
    3.2321   -6.3610    0.0000 C   0  0  0  0  0  0  0  0  0  0  0  0
    1.8031   -6.3594    0.0000 O   0  0  0  0  0  0  0  0  0  0  0  0
    3.2348   -3.8860    0.0000 C   0  0  0  0  0  0  0  0  0  0  0  0
    1.8050   -4.7094    0.0000 O   0  0  0  0  0  0  0  0  0  0  0  0
    1.0891   -5.9461    0.0000 C   0  0  0  0  0  0  0  0  0  0  0  0
  1  2  1  0  0  0  0
  2  3  1  0  0  0  0
  3  4  1  0  0  0  0
  4  5  1  0  0  0  0
  5  6  1  0  0  0  0
  6  1  1  0  0  0  0
  4  7  2  0  0  0  0
  7  8  1  0  0  0  0
  8  9  1  0  0  0  0
  9 10  1  0  0  0  0
 10  5  1  0  0  0  0
  9 11  1  0  0  0  0
 11 12  1  0  0  0  0
 12 13  1  0  0  0  0
 13 14  1  0  0  0  0
 14 10  1  0  0  0  0
 11 15  1  0  0  0  0
 15 16  1  0  0  0  0
 16 17  1  0  0  0  0
 17 12  1  0  0  0  0
  2 18  1  1  0  0  0
  5 19  1  1  0  0  0
  9 20  1  1  0  0  0
 11 21  1  1  0  0  0
 12 22  1  1  0  0  0
 17 23  1  1  0  0  0
 10 24  1  6  0  0  0
 17 25  1  6  0  0  0
 25 26  1  0  0  0  0
 25 27  2  0  0  0  0
 26 28  1  0  0  0  0
 28 29  1  0  0  0  0
 30 31  1  0  0  0  0
 31 32  1  0  0  0  0
 32 33  1  0  0  0  0
 33 34  1  0  0  0  0
 34 35  1  0  0  0  0
 35 30  1  0  0  0  0
 30 36  1  1  0  0  0
 31 37  1  6  0  0  0
 32 38  1  6  0  0  0
 38 39  1  0  0  0  0
 40 37  1  1  0  0  0
 40 41  1  0  0  0  0
 41 42  1  0  0  0  0
 42 43  1  0  0  0  0
 43 44  1  0  0  0  0
 44 45  1  0  0  0  0
 45 40  1  0  0  0  0
 42 46  1  1  0  0  0
 43 47  1  6  0  0  0
 44 48  1  6  0  0  0
 48 49  1  0  0  0  0
 50 47  1  1  0  0  0
 50 51  1  0  0  0  0
 51 52  1  0  0  0  0
 52 53  1  0  0  0  0
 53 54  1  0  0  0  0
 54 55  1  0  0  0  0
 55 50  1  0  0  0  0
 54 56  1  1  0  0  0
 52 57  1  1  0  0  0
 53 58  1  6  0  0  0
 56 59  1  0  0  0  0
 34 18  1  1  0  0  0
M  END
>  <cdx:fragmentId>
83

$$$$
