99784.cdx
  Mrv1902 05222410282D          

 24 24  0  0  0  0            999 V2000
    5.6699   -8.4013    0.0000 C   0  0  2  0  0  0  0  0  0  0  0  0
    5.6699   -9.2263    0.0000 C   0  0  2  0  0  0  0  0  0  0  0  0
    6.3844   -9.6387    0.0000 C   0  0  1  0  0  0  0  0  0  0  0  0
    7.0989   -9.2263    0.0000 C   0  0  2  0  0  0  0  0  0  0  0  0
    7.0989   -8.4013    0.0000 O   0  0  0  0  0  0  0  0  0  0  0  0
    6.3844   -7.9888    0.0000 C   0  0  0  0  0  0  0  0  0  0  0  0
    4.9555   -7.9888    0.0000 O   0  0  0  0  0  0  0  0  0  0  0  0
    6.3844  -10.4637    0.0000 O   0  0  0  0  0  0  0  0  0  0  0  0
    6.7969   -7.2743    0.0000 C   0  0  0  0  0  0  0  0  0  0  0  0
    7.8133   -9.6387    0.0000 C   0  0  0  0  0  0  0  0  0  0  0  0
    8.5278   -9.2263    0.0000 O   0  0  0  0  0  0  0  0  0  0  0  0
    5.9719   -7.2743    0.0000 S   0  0  0  0  0  0  0  0  0  0  0  0
    6.3844   -6.5598    0.0000 C   0  0  0  0  0  0  0  0  0  0  0  0
    7.6219   -7.2743    0.0000 C   0  0  0  0  0  0  0  0  0  0  0  0
    8.0344   -7.9888    0.0000 O   0  0  0  0  0  0  0  0  0  0  0  0
    8.0344   -6.5598    0.0000 N   0  0  0  0  0  0  0  0  0  0  0  0
    6.7969   -5.8453    0.0000 C   0  0  0  0  0  0  0  0  0  0  0  0
    6.3844   -5.1309    0.0000 C   0  0  0  0  0  0  0  0  0  0  0  0
    8.8594   -6.5598    0.0000 O   0  0  0  0  0  0  0  0  0  0  0  0
    9.2719   -5.8453    0.0000 S   0  0  0  0  0  0  0  0  0  0  0  0
    9.6844   -5.1309    0.0000 O   0  0  0  0  0  0  0  0  0  0  0  0
    8.5574   -5.4328    0.0000 O   0  0  0  0  0  0  0  0  0  0  0  0
    9.9864   -6.2578    0.0000 O   0  0  0  0  0  0  0  0  0  0  0  0
    4.9555   -9.6387    0.0000 O   0  0  0  0  0  0  0  0  0  0  0  0
  1  2  1  0  0  0  0
  2  3  1  0  0  0  0
  3  4  1  0  0  0  0
  4  5  1  0  0  0  0
  5  6  1  0  0  0  0
  6  1  1  0  0  0  0
  1  7  1  1  0  0  0
  3  8  1  1  0  0  0
  6  9  1  0  0  0  0
  4 10  1  6  0  0  0
 10 11  1  0  0  0  0
  6 12  1  0  0  0  0
  9 13  1  0  0  0  0
  9 14  1  0  0  0  0
 14 15  2  0  0  0  0
 14 16  1  0  0  0  0
 13 17  1  0  0  0  0
 17 18  1  0  0  0  0
 16 19  1  0  0  0  0
 19 20  1  0  0  0  0
 20 21  1  0  0  0  0
 20 22  2  0  0  0  0
 20 23  2  0  0  0  0
  2 24  1  6  0  0  0
M  END
>  <cdx:fragmentId>
5

$$$$
