99798.cdx
  Mrv1902 05222410202D          

 14 15  0  0  0  0            999 V2000
    5.2299   -8.0437    0.0000 C   0  0  0  0  0  0  0  0  0  0  0  0
    5.2299   -8.8688    0.0000 C   0  0  0  0  0  0  0  0  0  0  0  0
    5.9444   -9.2813    0.0000 C   0  0  0  0  0  0  0  0  0  0  0  0
    6.6589   -8.8688    0.0000 C   0  0  0  0  0  0  0  0  0  0  0  0
    6.6589   -8.0437    0.0000 C   0  0  0  0  0  0  0  0  0  0  0  0
    5.9444   -7.6313    0.0000 C   0  0  0  0  0  0  0  0  0  0  0  0
    7.3733   -9.2813    0.0000 N   0  0  0  0  0  0  0  0  0  0  0  0
    8.0878   -8.8688    0.0000 C   0  0  0  0  0  0  0  0  0  0  0  0
    8.0878   -8.0437    0.0000 C   0  0  2  0  0  0  0  0  0  0  0  0
    7.3733   -7.6313    0.0000 C   0  0  0  0  0  0  0  0  0  0  0  0
    8.8023   -7.6313    0.0000 C   0  0  0  0  0  0  0  0  0  0  0  0
    7.3733   -6.8062    0.0000 O   0  0  0  0  0  0  0  0  0  0  0  0
    8.8023   -9.2813    0.0000 O   0  0  0  0  0  0  0  0  0  0  0  0
    8.8023   -8.4563    0.0000 O   0  0  0  0  0  0  0  0  0  0  0  0
  1  2  2  0  0  0  0
  2  3  1  0  0  0  0
  3  4  2  0  0  0  0
  4  5  1  0  0  0  0
  5  6  2  0  0  0  0
  6  1  1  0  0  0  0
  4  7  1  0  0  0  0
  7  8  1  0  0  0  0
  8  9  1  0  0  0  0
  9 10  1  0  0  0  0
 10  5  1  0  0  0  0
  9 11  1  0  0  0  0
 12 10  2  0  0  0  0
  8 13  2  0  0  0  0
  9 14  1  1  0  0  0
M  END
>  <cdx:fragmentId>
5

$$$$
