99795.cdx
  Mrv1902 05222410262D          

 24 26  0  0  0  0            999 V2000
    4.5562   -7.5488    0.0000 C   0  0  0  0  0  0  0  0  0  0  0  0
    4.5562   -8.3737    0.0000 C   0  0  0  0  0  0  0  0  0  0  0  0
    5.2706   -8.7862    0.0000 C   0  0  0  0  0  0  0  0  0  0  0  0
    5.9851   -8.3737    0.0000 C   0  0  0  0  0  0  0  0  0  0  0  0
    5.9851   -7.5488    0.0000 C   0  0  0  0  0  0  0  0  0  0  0  0
    5.2706   -7.1362    0.0000 C   0  0  0  0  0  0  0  0  0  0  0  0
    6.6996   -8.7862    0.0000 N   0  0  0  0  0  0  0  0  0  0  0  0
    7.4141   -8.3737    0.0000 C   0  0  0  0  0  0  0  0  0  0  0  0
    7.4141   -7.5488    0.0000 C   0  0  0  0  0  0  0  0  0  0  0  0
    6.6996   -7.1362    0.0000 C   0  0  0  0  0  0  0  0  0  0  0  0
    8.1285   -7.1362    0.0000 C   0  0  2  0  0  0  0  0  0  0  0  0
    8.1285   -6.3113    0.0000 C   0  0  1  0  0  0  0  0  0  0  0  0
    7.4141   -5.8988    0.0000 C   0  0  0  0  0  0  0  0  0  0  0  0
    6.6996   -6.3113    0.0000 O   0  0  0  0  0  0  0  0  0  0  0  0
    8.8430   -7.5488    0.0000 C   0  0  0  0  0  0  0  0  0  0  0  0
    9.5575   -7.1362    0.0000 O   0  0  0  0  0  0  0  0  0  0  0  0
    9.5575   -6.3113    0.0000 C   0  0  0  0  0  0  0  0  0  0  0  0
    8.8430   -5.8988    0.0000 C   0  0  0  0  0  0  0  0  0  0  0  0
   10.2719   -7.5488    0.0000 C   0  0  0  0  0  0  0  0  0  0  0  0
   10.9864   -6.3113    0.0000 N   0  0  0  0  0  0  0  0  0  0  0  0
   10.2719   -5.8988    0.0000 C   0  0  0  0  0  0  0  0  0  0  0  0
    7.4141   -5.0737    0.0000 O   0  0  0  0  0  0  0  0  0  0  0  0
    8.8430   -8.3737    0.0000 O   0  0  0  0  0  0  0  0  0  0  0  0
    8.1285   -8.7862    0.0000 O   0  0  0  0  0  0  0  0  0  0  0  0
  1  2  2  0  0  0  0
  2  3  1  0  0  0  0
  3  4  2  0  0  0  0
  4  5  1  0  0  0  0
  5  6  2  0  0  0  0
  6  1  1  0  0  0  0
  4  7  1  0  0  0  0
  7  8  1  0  0  0  0
  8  9  1  0  0  0  0
  9 10  2  0  0  0  0
 10  5  1  0  0  0  0
  9 11  1  0  0  0  0
 11 12  1  0  0  0  0
 12 13  1  0  0  0  0
 13 14  1  0  0  0  0
 14 10  1  0  0  0  0
 11 15  1  6  0  0  0
 15 16  1  0  0  0  0
 17 18  1  0  0  0  0
 12 18  1  1  0  0  0
 16 19  1  0  0  0  0
 20 21  1  0  0  0  0
 21 17  1  0  0  0  0
 13 22  2  0  0  0  0
 15 23  2  0  0  0  0
  8 24  2  0  0  0  0
M  END
>  <cdx:fragmentId>
5

$$$$
