99791.cdx
  Mrv1902 05222410282D          

 14 13  0  0  0  0            999 V2000
    9.1897   -8.0522    0.0000 C   0  0  0  0  0  0  0  0  0  0  0  0
    8.4753   -8.4647    0.0000 C   0  0  0  0  0  0  0  0  0  0  0  0
    7.7608   -8.0522    0.0000 C   0  0  0  0  0  0  0  0  0  0  0  0
    7.0463   -8.4647    0.0000 C   0  0  0  0  0  0  0  0  0  0  0  0
    6.3318   -8.0522    0.0000 C   0  0  0  0  0  0  0  0  0  0  0  0
    5.6174   -8.4647    0.0000 C   0  0  2  0  0  0  0  0  0  0  0  0
    4.9029   -8.0522    0.0000 C   0  0  0  0  0  0  0  0  0  0  0  0
    4.1884   -8.4647    0.0000 C   0  0  0  0  0  0  0  0  0  0  0  0
    9.1897   -7.2272    0.0000 O   0  0  0  0  0  0  0  0  0  0  0  0
    9.9042   -8.4647    0.0000 O   0  0  0  0  0  0  0  0  0  0  0  0
    8.4753   -9.2897    0.0000 C   0  0  0  0  0  0  0  0  0  0  0  0
    9.1897   -9.7022    0.0000 O   0  0  0  0  0  0  0  0  0  0  0  0
    5.2049   -9.1792    0.0000 C   0  0  0  0  0  0  0  0  0  0  0  0
    6.0299   -9.1792    0.0000 O   0  0  0  0  0  0  0  0  0  0  0  0
  1  2  1  0  0  0  0
  2  3  2  0  0  0  0
  3  4  1  0  0  0  0
  4  5  1  0  0  0  0
  5  6  1  0  0  0  0
  6  7  1  0  0  0  0
  7  8  2  0  0  0  0
  1  9  2  0  0  0  0
  1 10  1  0  0  0  0
 11 12  1  0  0  0  0
  2 11  1  0  0  0  0
  6 13  1  0  0  0  0
  6 14  1  6  0  0  0
M  END
>  <cdx:fragmentId>
199

$$$$
