99793.cdx
  Mrv1902 05222410272D          

 29 31  0  0  0  0            999 V2000
    5.0197   -8.0767    0.0000 O   0  0  0  0  0  0  0  0  0  0  0  0
    5.7333   -7.6628    0.0000 C   0  0  0  0  0  0  0  0  0  0  0  0
   10.0186   -6.8295    0.0000 C   0  0  0  0  0  0  0  0  0  0  0  0
   10.7322   -6.4156    0.0000 C   0  0  0  0  0  0  0  0  0  0  0  0
   11.4475   -6.8267    0.0000 C   0  0  0  0  0  0  0  0  0  0  0  0
   11.4491   -7.6517    0.0000 C   0  0  0  0  0  0  0  0  0  0  0  0
   10.7354   -8.0656    0.0000 C   0  0  0  0  0  0  0  0  0  0  0  0
   10.0202   -7.6545    0.0000 C   0  0  0  0  0  0  0  0  0  0  0  0
    9.3065   -8.0683    0.0000 C   0  0  0  0  0  0  0  0  0  0  0  0
    8.5912   -7.6572    0.0000 O   0  0  0  0  0  0  0  0  0  0  0  0
    8.5944   -9.3072    0.0000 O   0  0  0  0  0  0  0  0  0  0  0  0
    7.1671  -10.1350    0.0000 O   0  0  0  0  0  0  0  0  0  0  0  0
    5.7366   -9.3128    0.0000 O   0  0  0  0  0  0  0  0  0  0  0  0
    7.8776   -8.0711    0.0000 C   0  0  1  0  0  0  0  0  0  0  0  0
    7.8792   -8.8961    0.0000 C   0  0  1  0  0  0  0  0  0  0  0  0
    7.1655   -9.3100    0.0000 C   0  0  2  0  0  0  0  0  0  0  0  0
    6.4502   -8.8989    0.0000 C   0  0  1  0  0  0  0  0  0  0  0  0
    6.4486   -8.0739    0.0000 C   0  0  2  0  0  0  0  0  0  0  0  0
    7.1623   -7.6600    0.0000 O   0  0  0  0  0  0  0  0  0  0  0  0
    3.5885   -6.4265    0.0000 C   0  0  1  0  0  0  0  0  0  0  0  0
    2.8728   -6.8369    0.0000 C   0  0  1  0  0  0  0  0  0  0  0  0
    2.8705   -7.6619    0.0000 C   0  0  2  0  0  0  0  0  0  0  0  0
    3.5838   -8.0765    0.0000 C   0  0  2  0  0  0  0  0  0  0  0  0
    4.2994   -7.6660    0.0000 C   0  0  1  0  0  0  0  0  0  0  0  0
    4.3018   -6.8410    0.0000 O   0  0  0  0  0  0  0  0  0  0  0  0
    2.1596   -6.4224    0.0000 O   0  0  0  0  0  0  0  0  0  0  0  0
    3.5909   -5.6015    0.0000 C   0  0  0  0  0  0  0  0  0  0  0  0
    2.1548   -8.0724    0.0000 O   0  0  0  0  0  0  0  0  0  0  0  0
    3.5814   -8.9015    0.0000 O   0  0  0  0  0  0  0  0  0  0  0  0
 18  2  1  1  0  0  0
  2  1  1  0  0  0  0
 14 10  1  1  0  0  0
  9  8  1  0  0  0  0
  8  3  2  0  0  0  0
  4  3  1  0  0  0  0
  5  4  2  0  0  0  0
  6  5  1  0  0  0  0
  7  6  2  0  0  0  0
  8  7  1  0  0  0  0
 10  9  1  0  0  0  0
 15 11  1  6  0  0  0
 16 12  1  1  0  0  0
 17 13  1  6  0  0  0
 19 14  1  0  0  0  0
 15 14  1  0  0  0  0
 16 15  1  0  0  0  0
 17 16  1  0  0  0  0
 18 17  1  0  0  0  0
 19 18  1  0  0  0  0
 20 21  1  0  0  0  0
 21 22  1  0  0  0  0
 22 23  1  0  0  0  0
 23 24  1  0  0  0  0
 24 25  1  0  0  0  0
 25 20  1  0  0  0  0
 21 26  1  1  0  0  0
 20 27  1  6  0  0  0
 22 28  1  6  0  0  0
 23 29  1  6  0  0  0
 24  1  1  1  0  0  0
M  END
>  <cdx:fragmentId>
5

$$$$
