99790.cdx
  Mrv1902 05222410282D          

 34 39  0  0  0  0            999 V2000
    7.5537   -7.2738    0.0000 C   0  0  0  0  0  0  0  0  0  0  0  0
    7.5537   -8.0987    0.0000 C   0  0  1  0  0  0  0  0  0  0  0  0
    8.2681   -8.5113    0.0000 C   0  0  0  0  0  0  0  0  0  0  0  0
    8.9826   -8.0987    0.0000 C   0  0  1  0  0  0  0  0  0  0  0  0
    8.9826   -7.2738    0.0000 C   0  0  2  0  0  0  0  0  0  0  0  0
    8.2681   -6.8613    0.0000 C   0  0  0  0  0  0  0  0  0  0  0  0
    9.6971   -8.5113    0.0000 C   0  0  0  0  0  0  0  0  0  0  0  0
   10.4116   -8.0987    0.0000 C   0  0  0  0  0  0  0  0  0  0  0  0
   10.4116   -7.2738    0.0000 C   0  0  0  0  0  0  0  0  0  0  0  0
    9.6971   -6.8613    0.0000 C   0  0  0  0  0  0  0  0  0  0  0  0
    6.7691   -7.0188    0.0000 C   0  0  0  0  0  0  0  0  0  0  0  0
    6.2841   -7.6863    0.0000 C   0  0  0  0  0  0  0  0  0  0  0  0
    6.7691   -8.3537    0.0000 O   0  0  0  0  0  0  0  0  0  0  0  0
    4.1437   -9.2125    0.0000 C   0  0  0  0  0  0  0  0  0  0  0  0
    4.1437  -10.0375    0.0000 C   0  0  0  0  0  0  0  0  0  0  0  0
    4.8581  -10.4500    0.0000 C   0  0  0  0  0  0  0  0  0  0  0  0
    5.5726  -10.0375    0.0000 C   0  0  2  0  0  0  0  0  0  0  0  0
    5.5726   -9.2125    0.0000 C   0  0  2  0  0  0  0  0  0  0  0  0
    4.8581   -8.8000    0.0000 C   0  0  0  0  0  0  0  0  0  0  0  0
    6.2871  -10.4500    0.0000 C   0  0  0  0  0  0  0  0  0  0  0  0
    7.0016  -10.0375    0.0000 C   0  0  0  0  0  0  0  0  0  0  0  0
    7.0016   -9.2125    0.0000 C   0  0  1  0  0  0  0  0  0  0  0  0
    6.2871   -8.8000    0.0000 C   0  0  0  0  0  0  0  0  0  0  0  0
    7.7862  -10.2924    0.0000 C   0  0  0  0  0  0  0  0  0  0  0  0
    8.2711   -9.6250    0.0000 C   0  0  0  0  0  0  0  0  0  0  0  0
    7.7862   -8.9576    0.0000 O   0  0  0  0  0  0  0  0  0  0  0  0
    5.4591   -7.6863    0.0000 O   0  0  0  0  0  0  0  0  0  0  0  0
    6.5141   -6.2342    0.0000 C   0  0  0  0  0  0  0  0  0  0  0  0
    9.6971   -6.0362    0.0000 C   0  0  0  0  0  0  0  0  0  0  0  0
    4.8581  -11.2750    0.0000 C   0  0  0  0  0  0  0  0  0  0  0  0
    8.0411  -11.0771    0.0000 C   0  0  0  0  0  0  0  0  0  0  0  0
    9.0961   -9.6250    0.0000 O   0  0  0  0  0  0  0  0  0  0  0  0
    8.9826   -8.9238    0.0000 C   0  0  0  0  0  0  0  0  0  0  0  0
    5.5726   -8.3875    0.0000 C   0  0  0  0  0  0  0  0  0  0  0  0
  1  2  1  0  0  0  0
  2  3  1  0  0  0  0
  3  4  1  0  0  0  0
  4  5  1  0  0  0  0
  5  6  1  6  0  0  0
  6  1  1  0  0  0  0
  4  7  1  0  0  0  0
  7  8  1  0  0  0  0
  8  9  1  0  0  0  0
  9 10  1  0  0  0  0
 10  5  1  0  0  0  0
  1 11  2  0  0  0  0
 11 12  1  0  0  0  0
 12 13  1  0  0  0  0
  2 13  1  1  0  0  0
 14 15  1  0  0  0  0
 15 16  1  0  0  0  0
 16 17  1  0  0  0  0
 17 18  1  0  0  0  0
 18 19  1  0  0  0  0
 19 14  1  0  0  0  0
 17 20  1  6  0  0  0
 20 21  1  0  0  0  0
 21 22  1  0  0  0  0
 22 23  1  0  0  0  0
 23 18  1  0  0  0  0
 21 24  2  0  0  0  0
 24 25  1  0  0  0  0
 25 26  1  0  0  0  0
 22 26  1  6  0  0  0
 12 27  2  0  0  0  0
 11 28  1  0  0  0  0
 10 29  2  0  0  0  0
 16 30  2  0  0  0  0
 24 31  1  0  0  0  0
 25 32  2  0  0  0  0
  2 22  1  0  0  0  0
  4 33  1  6  0  0  0
 18 34  1  1  0  0  0
M  END
>  <cdx:fragmentId>
46

$$$$
