99792.cdx
  Mrv1902 05222410272D          

 17 17  0  0  0  0            999 V2000
    6.9430   -5.2361    0.0000 C   0  0  2  0  0  0  0  0  0  0  0  0
    6.4426   -4.5801    0.0000 O   0  0  0  0  0  0  0  0  0  0  0  0
    7.7612   -5.1307    0.0000 C   0  0  0  0  0  0  0  0  0  0  0  0
    6.6251   -5.9974    0.0000 C   0  0  0  0  0  0  0  0  0  0  0  0
    7.1255   -6.6533    0.0000 C   0  0  0  0  0  0  0  0  0  0  0  0
    6.3952   -6.7001    0.0000 O   0  0  0  0  0  0  0  0  0  0  0  0
    5.2905   -8.0304    0.0000 O   0  0  0  0  0  0  0  0  0  0  0  0
    7.9389   -7.1288    0.0000 C   0  0  0  0  0  0  0  0  0  0  0  0
    5.5040   -7.2335    0.0000 C   0  0  0  0  0  0  0  0  0  0  0  0
    8.3411   -7.8491    0.0000 C   0  0  0  0  0  0  0  0  0  0  0  0
    6.7723   -9.8894    0.0000 O   0  0  0  0  0  0  0  0  0  0  0  0
    7.5162   -7.8373    0.0000 C   0  0  0  0  0  0  0  0  0  0  0  0
    6.8077   -7.4146    0.0000 C   0  0  1  0  0  0  0  0  0  0  0  0
    6.0874   -7.8169    0.0000 C   0  0  1  0  0  0  0  0  0  0  0  0
    6.0756   -8.6418    0.0000 C   0  0  0  0  0  0  0  0  0  0  0  0
    6.7841   -9.0644    0.0000 C   0  0  2  0  0  0  0  0  0  0  0  0
    7.5044   -8.6622    0.0000 C   0  0  0  0  0  0  0  0  0  0  0  0
  1  2  1  6  0  0  0
  4  1  1  0  0  0  0
  1  3  1  0  0  0  0
  5  4  2  0  0  0  0
 13  5  1  0  0  0  0
 13  6  1  6  0  0  0
 14  7  1  1  0  0  0
 12  8  1  0  0  0  0
 14  9  1  6  0  0  0
 12 10  1  0  0  0  0
 16 11  1  6  0  0  0
 12 17  1  0  0  0  0
 13 12  1  0  0  0  0
 14 13  1  0  0  0  0
 15 14  1  0  0  0  0
 16 15  1  0  0  0  0
 17 16  1  0  0  0  0
M  END
>  <cdx:fragmentId>
5

$$$$
