99797.cdx
  Mrv1902 05222410262D          

 17 19  0  0  0  0            999 V2000
    6.0210   -7.3425    0.0000 C   0  0  0  0  0  0  0  0  0  0  0  0
    6.0210   -8.1675    0.0000 C   0  0  0  0  0  0  0  0  0  0  0  0
    6.6044   -8.7509    0.0000 N   0  0  0  0  0  0  0  0  0  0  0  0
    7.4294   -8.7509    0.0000 C   0  0  0  0  0  0  0  0  0  0  0  0
    8.0128   -8.1675    0.0000 N   0  0  0  0  0  0  0  0  0  0  0  0
    8.0128   -7.3425    0.0000 C   0  0  1  0  0  0  0  0  0  0  0  0
    7.4294   -6.7591    0.0000 N   0  0  0  0  0  0  0  0  0  0  0  0
    6.6044   -6.7591    0.0000 C   0  0  0  0  0  0  0  0  0  0  0  0
    6.2887   -5.9969    0.0000 O   0  0  0  0  0  0  0  0  0  0  0  0
    5.3066   -6.9300    0.0000 C   0  0  0  0  0  0  0  0  0  0  0  0
    4.5921   -7.3425    0.0000 C   0  0  0  0  0  0  0  0  0  0  0  0
    4.5921   -8.1675    0.0000 C   0  0  0  0  0  0  0  0  0  0  0  0
    5.3066   -8.5800    0.0000 C   0  0  0  0  0  0  0  0  0  0  0  0
    8.7478   -6.9680    0.0000 C   0  0  0  0  0  0  0  0  0  0  0  0
    8.6188   -6.1531    0.0000 C   0  0  0  0  0  0  0  0  0  0  0  0
    7.8039   -6.0241    0.0000 C   0  0  0  0  0  0  0  0  0  0  0  0
    7.7451   -9.5131    0.0000 O   0  0  0  0  0  0  0  0  0  0  0  0
  1  2  2  0  0  0  0
  2  3  1  0  0  0  0
  3  4  1  0  0  0  0
  4  5  1  0  0  0  0
  5  6  1  0  0  0  0
  6  7  1  1  0  0  0
  7  8  1  0  0  0  0
  8  1  1  0  0  0  0
  8  9  2  0  0  0  0
  1 10  1  0  0  0  0
 10 11  2  0  0  0  0
 11 12  1  0  0  0  0
 12 13  2  0  0  0  0
 13  2  1  0  0  0  0
  6 14  1  0  0  0  0
 14 15  1  0  0  0  0
 15 16  1  0  0  0  0
 16  7  1  0  0  0  0
  4 17  2  0  0  0  0
M  END
>  <cdx:fragmentId>
5

$$$$
