998.cdx
  Mrv1902 05222410242D          

  9  9  0  0  0  0            999 V2000
    7.6538   -3.2796    0.0000 C   0  0  0  0  0  0  0  0  0  0  0  0
    6.9394   -3.6921    0.0000 C   0  0  0  0  0  0  0  0  0  0  0  0
    8.3683   -3.6921    0.0000 O   0  0  0  0  0  0  0  0  0  0  0  0
    6.2249   -3.2796    0.0000 C   0  0  0  0  0  0  0  0  0  0  0  0
    5.5104   -3.6921    0.0000 C   0  0  0  0  0  0  0  0  0  0  0  0
    4.7959   -3.2796    0.0000 C   0  0  0  0  0  0  0  0  0  0  0  0
    4.7959   -2.4546    0.0000 C   0  0  0  0  0  0  0  0  0  0  0  0
    5.5104   -2.0421    0.0000 C   0  0  0  0  0  0  0  0  0  0  0  0
    6.2249   -2.4546    0.0000 C   0  0  0  0  0  0  0  0  0  0  0  0
  1  2  1  0  0  0  0
  1  3  2  0  0  0  0
  4  5  1  0  0  0  0
  5  6  2  0  0  0  0
  6  7  1  0  0  0  0
  7  8  2  0  0  0  0
  8  9  1  0  0  0  0
  4  9  2  0  0  0  0
  2  4  1  0  0  0  0
M  END
>  <cdx:fragmentId>
11

$$$$
