99803.cdx
  Mrv1902 05222410272D          

 39 42  0  0  0  0            999 V2000
    3.5055  -10.6706    0.0000 C   0  0  0  0  0  0  0  0  0  0  0  0
    3.5055   -9.8456    0.0000 C   0  0  0  0  0  0  0  0  0  0  0  0
    4.2200   -9.4331    0.0000 C   0  0  0  0  0  0  0  0  0  0  0  0
    4.2200  -11.0831    0.0000 C   0  0  0  0  0  0  0  0  0  0  0  0
    4.9345  -10.6706    0.0000 C   0  0  2  0  0  0  0  0  0  0  0  0
    4.9345  -11.4956    0.0000 H   0  0  0  0  0  0  0  0  0  0  0  0
    5.6489  -11.0831    0.0000 C   0  0  0  0  0  0  0  0  0  0  0  0
    6.3634  -10.6706    0.0000 C   0  0  0  0  0  0  0  0  0  0  0  0
    6.3634   -9.8456    0.0000 C   0  0  0  0  0  0  0  0  0  0  0  0
    7.0779   -9.4331    0.0000 C   0  0  2  0  0  0  0  0  0  0  0  0
    7.0779  -10.2581    0.0000 C   0  0  0  0  0  0  0  0  0  0  0  0
    7.8625   -9.6881    0.0000 C   0  0  0  0  0  0  0  0  0  0  0  0
    8.3474   -9.0206    0.0000 C   0  0  0  0  0  0  0  0  0  0  0  0
    7.8625   -8.3532    0.0000 C   0  0  2  0  0  0  0  0  0  0  0  0
    8.1174   -7.5686    0.0000 C   0  0  1  0  0  0  0  0  0  0  0  0
    8.9244   -7.3971    0.0000 C   0  0  0  0  0  0  0  0  0  0  0  0
    9.1793   -6.6124    0.0000 C   0  0  0  0  0  0  0  0  0  0  0  0
    9.9863   -6.4409    0.0000 C   0  0  0  0  0  0  0  0  0  0  0  0
   10.2413   -5.6563    0.0000 C   0  0  0  0  0  0  0  0  0  0  0  0
   11.0482   -5.4848    0.0000 C   0  0  0  0  0  0  0  0  0  0  0  0
    9.6892   -5.0432    0.0000 C   0  0  0  0  0  0  0  0  0  0  0  0
    7.5654   -6.9555    0.0000 C   0  0  0  0  0  0  0  0  0  0  0  0
    7.0779   -8.6081    0.0000 C   0  0  2  0  0  0  0  0  0  0  0  0
    7.0779   -7.7831    0.0000 C   0  0  0  0  0  0  0  0  0  0  0  0
    6.3634   -8.1956    0.0000 C   0  0  0  0  0  0  0  0  0  0  0  0
    5.6489   -8.6081    0.0000 C   0  0  0  0  0  0  0  0  0  0  0  0
    5.6489   -9.4331    0.0000 C   0  0  0  0  0  0  0  0  0  0  0  0
    4.9345   -9.8456    0.0000 C   0  0  1  0  0  0  0  0  0  0  0  0
    4.9345   -9.0206    0.0000 C   0  0  0  0  0  0  0  0  0  0  0  0
   11.3032   -4.7001    0.0000 O   0  0  0  0  0  0  0  0  0  0  0  0
   11.6003   -6.0978    0.0000 O   0  0  0  0  0  0  0  0  0  0  0  0
    8.6273   -5.9993    0.0000 O   0  0  0  0  0  0  0  0  0  0  0  0
    4.9345   -8.1956    0.0000 O   0  0  0  0  0  0  0  0  0  0  0  0
    8.1174  -10.4727    0.0000 O   0  0  0  0  0  0  0  0  0  0  0  0
    7.0779  -11.0831    0.0000 O   0  0  0  0  0  0  0  0  0  0  0  0
    2.7910  -11.0831    0.0000 O   0  0  0  0  0  0  0  0  0  0  0  0
    8.6594   -8.1397    0.0000 H   0  0  0  0  0  0  0  0  0  0  0  0
    4.2200  -11.9081    0.0000 C   0  0  0  0  0  0  0  0  0  0  0  0
    3.5055  -12.3206    0.0000 O   0  0  0  0  0  0  0  0  0  0  0  0
  1  2  1  0  0  0  0
  2  3  1  0  0  0  0
  1  4  1  0  0  0  0
  4  5  1  0  0  0  0
  5  6  1  6  0  0  0
  5  7  1  0  0  0  0
  7  8  1  0  0  0  0
  8  9  1  0  0  0  0
  9 10  1  0  0  0  0
 10 11  1  6  0  0  0
 10 12  1  0  0  0  0
 12 13  1  0  0  0  0
 14 13  1  0  0  0  0
 14 15  1  0  0  0  0
 15 16  1  0  0  0  0
 16 17  1  0  0  0  0
 17 18  1  0  0  0  0
 18 19  1  0  0  0  0
 19 20  1  0  0  0  0
 19 21  1  0  0  0  0
 15 22  1  6  0  0  0
 14 23  1  0  0  0  0
 10 23  1  0  0  0  0
 23 24  1  1  0  0  0
 23 25  1  0  0  0  0
 25 26  1  0  0  0  0
 26 27  1  0  0  0  0
  9 27  2  0  0  0  0
 27 28  1  0  0  0  0
  3 28  1  0  0  0  0
  5 28  1  0  0  0  0
 28 29  1  1  0  0  0
 20 30  2  0  0  0  0
 20 31  1  0  0  0  0
 17 32  2  0  0  0  0
 26 33  2  0  0  0  0
 12 34  1  0  0  0  0
  8 35  1  0  0  0  0
  1 36  1  0  0  0  0
 14 37  1  6  0  0  0
  4 38  1  0  0  0  0
 38 39  1  0  0  0  0
M  END
>  <cdx:fragmentId>
5

$$$$
