99800.cdx
  Mrv1902 05222410282D          

 16 17  0  0  0  0            999 V2000
    4.8587   -8.4975    0.0000 C   0  0  0  0  0  0  0  0  0  0  0  0
    4.8587   -9.3225    0.0000 C   0  0  0  0  0  0  0  0  0  0  0  0
    5.5731   -9.7350    0.0000 C   0  0  0  0  0  0  0  0  0  0  0  0
    6.2876   -9.3225    0.0000 C   0  0  0  0  0  0  0  0  0  0  0  0
    6.2876   -8.4975    0.0000 C   0  0  0  0  0  0  0  0  0  0  0  0
    5.5731   -8.0850    0.0000 C   0  0  0  0  0  0  0  0  0  0  0  0
    7.0722   -9.5774    0.0000 N   0  0  0  0  0  0  0  0  0  0  0  0
    7.5572   -8.9100    0.0000 C   0  0  0  0  0  0  0  0  0  0  0  0
    7.0722   -8.2426    0.0000 C   0  0  1  0  0  0  0  0  0  0  0  0
    8.3822   -8.9100    0.0000 O   0  0  0  0  0  0  0  0  0  0  0  0
    5.5731   -7.2600    0.0000 O   0  0  0  0  0  0  0  0  0  0  0  0
    7.3272   -7.4579    0.0000 C   0  0  0  0  0  0  0  0  0  0  0  0
    8.1241   -7.2444    0.0000 C   0  0  0  0  0  0  0  0  0  0  0  0
    8.9210   -7.0309    0.0000 N   0  0  0  0  0  0  0  0  0  0  0  0
    7.8691   -8.0290    0.0000 O   0  0  0  0  0  0  0  0  0  0  0  0
    4.8587   -6.8475    0.0000 C   0  0  0  0  0  0  0  0  0  0  0  0
  1  2  2  0  0  0  0
  2  3  1  0  0  0  0
  3  4  2  0  0  0  0
  4  5  1  0  0  0  0
  5  6  2  0  0  0  0
  6  1  1  0  0  0  0
  4  7  1  0  0  0  0
  7  8  1  0  0  0  0
  8  9  1  0  0  0  0
  9  5  1  0  0  0  0
  8 10  2  0  0  0  0
  6 11  1  0  0  0  0
  9 12  1  0  0  0  0
 12 13  1  0  0  0  0
  9 15  1  1  0  0  0
 11 16  1  0  0  0  0
 13 14  3  0  0  0  0
M  STY  1   1 SUP
M  SAL   1  2  13  14
M  SBL   1  1  14
M  SMT   1 CN
M  SAP   1  1  13  12  1
M  END
>  <cdx:fragmentId>
5

$$$$
