99807.cdx
  Mrv1902 05222410272D          

 62 71  0  0  0  0            999 V2000
    3.3737   -5.8575    0.0000 C   0  0  0  0  0  0  0  0  0  0  0  0
    3.3737   -6.6825    0.0000 C   0  0  0  0  0  0  0  0  0  0  0  0
    4.0881   -7.0950    0.0000 C   0  0  0  0  0  0  0  0  0  0  0  0
    4.8026   -6.6825    0.0000 C   0  0  0  0  0  0  0  0  0  0  0  0
    4.8026   -5.8575    0.0000 C   0  0  0  0  0  0  0  0  0  0  0  0
    4.0881   -5.4450    0.0000 C   0  0  0  0  0  0  0  0  0  0  0  0
    5.5171   -7.0950    0.0000 C   0  0  1  0  0  0  0  0  0  0  0  0
    6.2316   -6.6825    0.0000 C   0  0  2  0  0  0  0  0  0  0  0  0
    6.2316   -5.8575    0.0000 C   0  0  2  0  0  0  0  0  0  0  0  0
    5.5171   -5.4450    0.0000 O   0  0  0  0  0  0  0  0  0  0  0  0
    6.9460   -7.0950    0.0000 O   0  0  0  0  0  0  0  0  0  0  0  0
    7.6605   -5.8575    0.0000 C   0  0  0  0  0  0  0  0  0  0  0  0
    6.9460   -5.4450    0.0000 C   0  0  0  0  0  0  0  0  0  0  0  0
    8.3750   -5.4450    0.0000 C   0  0  0  0  0  0  0  0  0  0  0  0
    8.3750   -4.6200    0.0000 C   0  0  0  0  0  0  0  0  0  0  0  0
    7.6605   -4.2075    0.0000 C   0  0  0  0  0  0  0  0  0  0  0  0
    6.9460   -4.6200    0.0000 C   0  0  0  0  0  0  0  0  0  0  0  0
    2.6592   -5.4450    0.0000 O   0  0  0  0  0  0  0  0  0  0  0  0
    4.0881   -7.9200    0.0000 O   0  0  0  0  0  0  0  0  0  0  0  0
    9.0894   -4.2075    0.0000 O   0  0  0  0  0  0  0  0  0  0  0  0
    7.0856   -8.0443    0.0000 C   0  0  0  0  0  0  0  0  0  0  0  0
    6.6731   -8.7588    0.0000 C   0  0  0  0  0  0  0  0  0  0  0  0
    7.0856   -9.4732    0.0000 C   0  0  0  0  0  0  0  0  0  0  0  0
    7.9106   -9.4732    0.0000 C   0  0  0  0  0  0  0  0  0  0  0  0
    8.3231   -8.7588    0.0000 C   0  0  0  0  0  0  0  0  0  0  0  0
    7.9106   -8.0443    0.0000 C   0  0  0  0  0  0  0  0  0  0  0  0
    8.3231   -7.3298    0.0000 O   0  0  0  0  0  0  0  0  0  0  0  0
    5.8481   -8.7588    0.0000 O   0  0  0  0  0  0  0  0  0  0  0  0
    5.4356   -9.4732    0.0000 C   0  0  1  0  0  0  0  0  0  0  0  0
    5.8481  -10.1877    0.0000 C   0  0  1  0  0  0  0  0  0  0  0  0
    6.6731  -10.1877    0.0000 C   0  0  1  0  0  0  0  0  0  0  0  0
    4.6106   -9.4732    0.0000 C   0  0  0  0  0  0  0  0  0  0  0  0
    4.1981  -10.1877    0.0000 C   0  0  0  0  0  0  0  0  0  0  0  0
    4.1981   -8.7588    0.0000 C   0  0  0  0  0  0  0  0  0  0  0  0
    3.3731   -8.7588    0.0000 C   0  0  0  0  0  0  0  0  0  0  0  0
    2.9606   -9.4732    0.0000 C   0  0  0  0  0  0  0  0  0  0  0  0
    3.3731  -10.1877    0.0000 C   0  0  0  0  0  0  0  0  0  0  0  0
    5.4356  -10.9022    0.0000 O   0  0  0  0  0  0  0  0  0  0  0  0
    8.3231  -10.1877    0.0000 O   0  0  0  0  0  0  0  0  0  0  0  0
    7.2781  -11.2459    0.0000 C   0  0  0  0  0  0  0  0  0  0  0  0
    6.8656  -11.9604    0.0000 C   0  0  0  0  0  0  0  0  0  0  0  0
    7.2781  -12.6749    0.0000 C   0  0  0  0  0  0  0  0  0  0  0  0
    8.1031  -12.6749    0.0000 C   0  0  0  0  0  0  0  0  0  0  0  0
    8.5156  -11.9604    0.0000 C   0  0  0  0  0  0  0  0  0  0  0  0
    8.1031  -11.2459    0.0000 C   0  0  0  0  0  0  0  0  0  0  0  0
    2.1356   -9.4732    0.0000 O   0  0  0  0  0  0  0  0  0  0  0  0
    6.0406  -11.9604    0.0000 O   0  0  0  0  0  0  0  0  0  0  0  0
    8.5156  -13.3893    0.0000 O   0  0  0  0  0  0  0  0  0  0  0  0
    9.3406  -11.9604    0.0000 C   0  0  0  0  0  0  0  0  0  0  0  0
    9.7531  -11.2459    0.0000 C   0  0  2  0  0  0  0  0  0  0  0  0
    9.3406  -10.5314    0.0000 C   0  0  2  0  0  0  0  0  0  0  0  0
    8.5156  -10.5314    0.0000 O   0  0  0  0  0  0  0  0  0  0  0  0
    9.7531   -9.8170    0.0000 C   0  0  0  0  0  0  0  0  0  0  0  0
   10.5781   -9.8170    0.0000 C   0  0  0  0  0  0  0  0  0  0  0  0
   10.9906   -9.1025    0.0000 C   0  0  0  0  0  0  0  0  0  0  0  0
   10.5781   -8.3880    0.0000 C   0  0  0  0  0  0  0  0  0  0  0  0
    9.7531   -8.3880    0.0000 C   0  0  0  0  0  0  0  0  0  0  0  0
    9.3406   -9.1025    0.0000 C   0  0  0  0  0  0  0  0  0  0  0  0
   10.9906   -7.6736    0.0000 O   0  0  0  0  0  0  0  0  0  0  0  0
   10.5781  -11.2459    0.0000 O   0  0  0  0  0  0  0  0  0  0  0  0
    5.5171   -7.9200    0.0000 H   0  0  0  0  0  0  0  0  0  0  0  0
    7.4981  -10.1877    0.0000 H   0  0  0  0  0  0  0  0  0  0  0  0
  1  2  2  0  0  0  0
  2  3  1  0  0  0  0
  3  4  2  0  0  0  0
  4  5  1  0  0  0  0
  5  6  2  0  0  0  0
  6  1  1  0  0  0  0
  4  7  1  0  0  0  0
  7  8  1  0  0  0  0
  8  9  1  0  0  0  0
  9 10  1  0  0  0  0
 10  5  1  0  0  0  0
  8 11  1  6  0  0  0
 12 13  2  0  0  0  0
  9 13  1  6  0  0  0
 12 14  1  0  0  0  0
 14 15  2  0  0  0  0
 15 16  1  0  0  0  0
 16 17  2  0  0  0  0
 17 13  1  0  0  0  0
  1 18  1  0  0  0  0
  3 19  1  0  0  0  0
 15 20  1  0  0  0  0
 21 22  2  0  0  0  0
 22 23  1  0  0  0  0
 23 24  2  0  0  0  0
 24 25  1  0  0  0  0
 25 26  2  0  0  0  0
 26 21  1  0  0  0  0
 26 27  1  0  0  0  0
  7 21  1  0  0  0  0
  9 27  1  0  0  0  0
 22 28  1  0  0  0  0
 28 29  1  0  0  0  0
 29 30  1  0  0  0  0
 30 31  1  0  0  0  0
 31 23  1  0  0  0  0
 29 32  1  1  0  0  0
 32 33  2  0  0  0  0
 32 34  1  0  0  0  0
 34 35  2  0  0  0  0
 35 36  1  0  0  0  0
 36 37  2  0  0  0  0
 37 33  1  0  0  0  0
 30 38  1  1  0  0  0
 24 39  1  0  0  0  0
 31 40  1  0  0  0  0
 40 41  2  0  0  0  0
 41 42  1  0  0  0  0
 42 43  2  0  0  0  0
 43 44  1  0  0  0  0
 44 45  2  0  0  0  0
 45 40  1  0  0  0  0
 36 46  1  0  0  0  0
 41 47  1  0  0  0  0
 43 48  1  0  0  0  0
 44 49  1  0  0  0  0
 49 50  1  0  0  0  0
 50 51  1  0  0  0  0
 51 52  1  0  0  0  0
 52 45  1  0  0  0  0
 51 53  1  6  0  0  0
 53 54  2  0  0  0  0
 54 55  1  0  0  0  0
 55 56  2  0  0  0  0
 56 57  1  0  0  0  0
 57 58  2  0  0  0  0
 58 53  1  0  0  0  0
 56 59  1  0  0  0  0
 50 60  1  6  0  0  0
  7 61  1  6  0  0  0
 31 62  1  1  0  0  0
M  END
>  <cdx:fragmentId>
76

$$$$
