99806.cdx
  Mrv1902 05222410272D          

 44 50  0  0  0  0            999 V2000
    3.3737   -5.8575    0.0000 C   0  0  0  0  0  0  0  0  0  0  0  0
    3.3737   -6.6825    0.0000 C   0  0  0  0  0  0  0  0  0  0  0  0
    4.0881   -7.0950    0.0000 C   0  0  0  0  0  0  0  0  0  0  0  0
    4.8026   -6.6825    0.0000 C   0  0  0  0  0  0  0  0  0  0  0  0
    4.8026   -5.8575    0.0000 C   0  0  0  0  0  0  0  0  0  0  0  0
    4.0881   -5.4450    0.0000 C   0  0  0  0  0  0  0  0  0  0  0  0
    5.5171   -7.0950    0.0000 C   0  0  0  0  0  0  0  0  0  0  0  0
    6.2316   -6.6825    0.0000 C   0  0  0  0  0  0  0  0  0  0  0  0
    6.2316   -5.8575    0.0000 C   0  0  0  0  0  0  0  0  0  0  0  0
    5.5171   -5.4450    0.0000 O   0  0  0  0  0  0  0  0  0  0  0  0
    6.9460   -7.0950    0.0000 O   0  0  0  0  0  0  0  0  0  0  0  0
    7.6605   -5.8575    0.0000 C   0  0  0  0  0  0  0  0  0  0  0  0
    6.9460   -5.4450    0.0000 C   0  0  0  0  0  0  0  0  0  0  0  0
    8.3750   -5.4450    0.0000 C   0  0  0  0  0  0  0  0  0  0  0  0
    8.3750   -4.6200    0.0000 C   0  0  0  0  0  0  0  0  0  0  0  0
    7.6605   -4.2075    0.0000 C   0  0  0  0  0  0  0  0  0  0  0  0
    6.9460   -4.6200    0.0000 C   0  0  0  0  0  0  0  0  0  0  0  0
    2.6592   -5.4450    0.0000 O   0  0  0  0  0  0  0  0  0  0  0  0
    4.0881   -7.9200    0.0000 O   0  0  0  0  0  0  0  0  0  0  0  0
    7.6605   -3.3825    0.0000 O   0  0  0  0  0  0  0  0  0  0  0  0
    9.0894   -4.2075    0.0000 O   0  0  0  0  0  0  0  0  0  0  0  0
    9.0894   -5.8575    0.0000 O   0  0  0  0  0  0  0  0  0  0  0  0
    7.0856   -8.0443    0.0000 C   0  0  0  0  0  0  0  0  0  0  0  0
    6.6731   -8.7588    0.0000 C   0  0  0  0  0  0  0  0  0  0  0  0
    7.0856   -9.4732    0.0000 C   0  0  0  0  0  0  0  0  0  0  0  0
    7.9106   -9.4732    0.0000 C   0  0  0  0  0  0  0  0  0  0  0  0
    8.3231   -8.7588    0.0000 C   0  0  0  0  0  0  0  0  0  0  0  0
    7.9106   -8.0443    0.0000 C   0  0  0  0  0  0  0  0  0  0  0  0
    6.6731  -10.1877    0.0000 C   0  0  0  0  0  0  0  0  0  0  0  0
    7.0856  -10.9022    0.0000 C   0  0  0  0  0  0  0  0  0  0  0  0
    7.9106  -10.9022    0.0000 C   0  0  0  0  0  0  0  0  0  0  0  0
    8.3231  -10.1877    0.0000 O   0  0  0  0  0  0  0  0  0  0  0  0
    6.6731  -11.6166    0.0000 O   0  0  0  0  0  0  0  0  0  0  0  0
    7.9106  -12.3311    0.0000 C   0  0  0  0  0  0  0  0  0  0  0  0
    8.3231  -11.6166    0.0000 C   0  0  0  0  0  0  0  0  0  0  0  0
    8.3231  -13.0456    0.0000 C   0  0  0  0  0  0  0  0  0  0  0  0
    9.1481  -13.0456    0.0000 C   0  0  0  0  0  0  0  0  0  0  0  0
    9.5606  -12.3311    0.0000 C   0  0  0  0  0  0  0  0  0  0  0  0
    9.1481  -11.6166    0.0000 C   0  0  0  0  0  0  0  0  0  0  0  0
    8.3231   -7.3298    0.0000 O   0  0  0  0  0  0  0  0  0  0  0  0
    5.8481   -8.7588    0.0000 O   0  0  0  0  0  0  0  0  0  0  0  0
    7.9106  -13.7600    0.0000 H   0  0  0  0  0  0  0  0  0  0  0  0
    9.5606  -13.7600    0.0000 O   0  0  0  0  0  0  0  0  0  0  0  0
   10.3856  -12.3311    0.0000 O   0  0  0  0  0  0  0  0  0  0  0  0
  1  2  2  0  0  0  0
  2  3  1  0  0  0  0
  3  4  2  0  0  0  0
  4  5  1  0  0  0  0
  5  6  2  0  0  0  0
  6  1  1  0  0  0  0
  4  7  1  0  0  0  0
  7  8  1  0  0  0  0
  8  9  1  0  0  0  0
  9 10  1  0  0  0  0
 10  5  1  0  0  0  0
  8 11  1  0  0  0  0
 12 13  2  0  0  0  0
 13  9  1  0  0  0  0
 12 14  1  0  0  0  0
 14 15  2  0  0  0  0
 15 16  1  0  0  0  0
 16 17  2  0  0  0  0
 17 13  1  0  0  0  0
  1 18  1  0  0  0  0
  3 19  1  0  0  0  0
 16 20  1  0  0  0  0
 15 21  1  0  0  0  0
 14 22  1  0  0  0  0
 23 24  2  0  0  0  0
 24 25  1  0  0  0  0
 25 26  2  0  0  0  0
 26 27  1  0  0  0  0
 27 28  2  0  0  0  0
 28 23  1  0  0  0  0
 25 29  1  0  0  0  0
 29 30  1  0  0  0  0
 30 31  1  0  0  0  0
 31 32  1  0  0  0  0
 32 26  1  0  0  0  0
 30 33  1  0  0  0  0
 34 35  2  0  0  0  0
 35 31  1  0  0  0  0
 34 36  1  0  0  0  0
 36 37  2  0  0  0  0
 37 38  1  0  0  0  0
 38 39  2  0  0  0  0
 39 35  1  0  0  0  0
 28 40  1  0  0  0  0
 24 41  1  0  0  0  0
 36 42  1  0  0  0  0
 37 43  1  0  0  0  0
 38 44  1  0  0  0  0
  7 23  1  0  0  0  0
  9 40  1  0  0  0  0
M  END
>  <cdx:fragmentId>
76

$$$$
