99808.cdx
  Mrv1902 05222410202D          

 25 27  0  0  0  0            999 V2000
    1.9351   -7.3975    0.0000 C   0  0  0  0  0  0  0  0  0  0  0  0
    1.2206   -7.8100    0.0000 C   0  0  0  0  0  0  0  0  0  0  0  0
    1.2206   -8.6350    0.0000 C   0  0  0  0  0  0  0  0  0  0  0  0
    1.9351   -9.0475    0.0000 C   0  0  0  0  0  0  0  0  0  0  0  0
    2.6496   -8.6350    0.0000 C   0  0  0  0  0  0  0  0  0  0  0  0
    3.3640   -6.5725    0.0000 O   0  0  0  0  0  0  0  0  0  0  0  0
    2.6496   -7.8100    0.0000 N   0  0  0  0  0  0  0  0  0  0  0  0
    3.3640   -7.3975    0.0000 C   0  0  0  0  0  0  0  0  0  0  0  0
    4.0785   -7.8100    0.0000 C   0  0  0  0  0  0  0  0  0  0  0  0
    4.7930   -7.3975    0.0000 C   0  0  0  0  0  0  0  0  0  0  0  0
    5.5075   -7.8100    0.0000 C   0  0  0  0  0  0  0  0  0  0  0  0
    6.2219   -7.3975    0.0000 C   0  0  0  0  0  0  0  0  0  0  0  0
    6.9364   -7.8100    0.0000 C   0  0  0  0  0  0  0  0  0  0  0  0
    7.6509   -7.3975    0.0000 C   0  0  0  0  0  0  0  0  0  0  0  0
    8.3653   -7.8100    0.0000 C   0  0  0  0  0  0  0  0  0  0  0  0
    9.0798   -7.3975    0.0000 C   0  0  0  0  0  0  0  0  0  0  0  0
   12.0078   -8.8899    0.0000 O   0  0  0  0  0  0  0  0  0  0  0  0
   12.4928   -8.2225    0.0000 C   0  0  0  0  0  0  0  0  0  0  0  0
   12.0078   -7.5551    0.0000 O   0  0  0  0  0  0  0  0  0  0  0  0
   10.5088   -7.3975    0.0000 C   0  0  0  0  0  0  0  0  0  0  0  0
    9.7943   -7.8100    0.0000 C   0  0  0  0  0  0  0  0  0  0  0  0
    9.7943   -8.6350    0.0000 C   0  0  0  0  0  0  0  0  0  0  0  0
   10.5088   -9.0475    0.0000 C   0  0  0  0  0  0  0  0  0  0  0  0
   11.2232   -8.6350    0.0000 C   0  0  0  0  0  0  0  0  0  0  0  0
   11.2232   -7.8100    0.0000 C   0  0  0  0  0  0  0  0  0  0  0  0
  1  7  1  0  0  0  0
  2  1  1  0  0  0  0
  3  2  1  0  0  0  0
  4  3  1  0  0  0  0
  5  4  1  0  0  0  0
  7  5  1  0  0  0  0
  8  6  2  0  0  0  0
  8  7  1  0  0  0  0
  9  8  1  0  0  0  0
 10  9  1  0  0  0  0
 11 10  1  0  0  0  0
 12 11  2  0  0  0  0
 13 12  1  0  0  0  0
 14 13  2  0  0  0  0
 15 14  1  0  0  0  0
 16 15  2  0  0  0  0
 21 16  1  0  0  0  0
 17 24  1  0  0  0  0
 18 17  1  0  0  0  0
 19 18  1  0  0  0  0
 25 19  1  0  0  0  0
 20 25  1  0  0  0  0
 21 20  2  0  0  0  0
 22 21  1  0  0  0  0
 23 22  2  0  0  0  0
 24 23  1  0  0  0  0
 25 24  2  0  0  0  0
M  END
>  <cdx:fragmentId>
5

$$$$
