99801.cdx
  Mrv1902 05222410282D          

 28 31  0  0  0  0            999 V2000
    3.1674   -7.1362    0.0000 C   0  0  0  0  0  0  0  0  0  0  0  0
    3.1674   -7.9612    0.0000 C   0  0  0  0  0  0  0  0  0  0  0  0
    3.8819   -8.3737    0.0000 C   0  0  0  0  0  0  0  0  0  0  0  0
    4.5964   -7.9612    0.0000 C   0  0  0  0  0  0  0  0  0  0  0  0
    4.5964   -7.1362    0.0000 O   0  0  0  0  0  0  0  0  0  0  0  0
    5.3108   -8.3737    0.0000 O   0  0  0  0  0  0  0  0  0  0  0  0
    6.0253   -7.9612    0.0000 C   0  0  1  0  0  0  0  0  0  0  0  0
    6.0253   -7.1362    0.0000 C   0  0  0  0  0  0  0  0  0  0  0  0
    6.7398   -8.3737    0.0000 C   0  0  1  0  0  0  0  0  0  0  0  0
    7.4543   -7.9612    0.0000 C   0  0  2  0  0  0  0  0  0  0  0  0
    7.4543   -7.1362    0.0000 C   0  0  2  0  0  0  0  0  0  0  0  0
    6.7398   -6.7237    0.0000 C   0  0  0  0  0  0  0  0  0  0  0  0
    8.1687   -8.3737    0.0000 C   0  0  0  0  0  0  0  0  0  0  0  0
    8.8832   -7.9612    0.0000 C   0  0  0  0  0  0  0  0  0  0  0  0
    8.8832   -7.1362    0.0000 C   0  0  2  0  0  0  0  0  0  0  0  0
    8.1687   -6.7237    0.0000 C   0  0  0  0  0  0  0  0  0  0  0  0
   10.3121   -7.9612    0.0000 C   0  0  0  0  0  0  0  0  0  0  0  0
   10.3121   -7.1362    0.0000 C   0  0  0  0  0  0  0  0  0  0  0  0
    9.5977   -6.7237    0.0000 O   0  0  0  0  0  0  0  0  0  0  0  0
   11.0266   -6.7237    0.0000 O   0  0  0  0  0  0  0  0  0  0  0  0
   10.8955   -8.5446    0.0000 C   0  0  0  0  0  0  0  0  0  0  0  0
    6.7398   -9.1987    0.0000 C   0  0  0  0  0  0  0  0  0  0  0  0
    8.1687   -9.1987    0.0000 O   0  0  0  0  0  0  0  0  0  0  0  0
    6.1564   -9.7821    0.0000 O   0  0  0  0  0  0  0  0  0  0  0  0
    3.8819   -9.1987    0.0000 C   0  0  0  0  0  0  0  0  0  0  0  0
    7.4543   -6.3113    0.0000 H   0  0  0  0  0  0  0  0  0  0  0  0
    8.8832   -6.3113    0.0000 H   0  0  0  0  0  0  0  0  0  0  0  0
    7.4543   -8.7862    0.0000 C   0  0  0  0  0  0  0  0  0  0  0  0
  1  2  1  0  0  0  0
  2  3  1  0  0  0  0
  3  4  1  0  0  0  0
  4  5  2  0  0  0  0
  4  6  1  0  0  0  0
  7  6  1  1  0  0  0
  7  8  1  0  0  0  0
  7  9  1  0  0  0  0
  9 10  1  0  0  0  0
 10 11  1  0  0  0  0
 11 12  1  0  0  0  0
 12  8  1  0  0  0  0
 10 13  1  0  0  0  0
 13 14  1  0  0  0  0
 14 15  1  0  0  0  0
 15 16  1  0  0  0  0
 16 11  1  0  0  0  0
 17 18  1  0  0  0  0
 18 19  1  0  0  0  0
 19 15  1  0  0  0  0
 14 17  2  0  0  0  0
 18 20  2  0  0  0  0
 17 21  1  0  0  0  0
  9 22  1  1  0  0  0
 13 23  1  0  0  0  0
 22 23  1  0  0  0  0
 22 24  2  0  0  0  0
  3 25  1  0  0  0  0
 11 26  1  1  0  0  0
 15 27  1  1  0  0  0
 10 28  1  1  0  0  0
M  END
>  <cdx:fragmentId>
5

$$$$
