99816.cdx
  Mrv1902 05222410272D          

 32 35  0  0  0  0            999 V2000
    5.0237   -9.1575    0.0000 C   0  0  0  0  0  0  0  0  0  0  0  0
    5.0237   -9.9825    0.0000 C   0  0  0  0  0  0  0  0  0  0  0  0
    5.7381  -10.3950    0.0000 C   0  0  0  0  0  0  0  0  0  0  0  0
    6.4526   -9.9825    0.0000 C   0  0  0  0  0  0  0  0  0  0  0  0
    6.4526   -9.1575    0.0000 C   0  0  0  0  0  0  0  0  0  0  0  0
    5.7381   -8.7450    0.0000 C   0  0  0  0  0  0  0  0  0  0  0  0
    7.1671  -10.3950    0.0000 C   0  0  0  0  0  0  0  0  0  0  0  0
    7.8816   -9.9825    0.0000 C   0  0  0  0  0  0  0  0  0  0  0  0
    7.8816   -9.1575    0.0000 C   0  0  0  0  0  0  0  0  0  0  0  0
    7.1671   -8.7450    0.0000 O   0  0  0  0  0  0  0  0  0  0  0  0
    5.7381  -11.2200    0.0000 O   0  0  0  0  0  0  0  0  0  0  0  0
    7.1671  -11.2200    0.0000 O   0  0  0  0  0  0  0  0  0  0  0  0
    8.5960   -8.7450    0.0000 C   0  0  0  0  0  0  0  0  0  0  0  0
    8.5960   -7.9200    0.0000 C   0  0  0  0  0  0  0  0  0  0  0  0
    7.8816   -7.5075    0.0000 C   0  0  0  0  0  0  0  0  0  0  0  0
    9.3105   -9.1575    0.0000 C   0  0  0  0  0  0  0  0  0  0  0  0
   10.0250   -8.7450    0.0000 C   0  0  0  0  0  0  0  0  0  0  0  0
   10.0250   -7.9200    0.0000 C   0  0  0  0  0  0  0  0  0  0  0  0
    9.3105   -7.5075    0.0000 C   0  0  0  0  0  0  0  0  0  0  0  0
    9.3105   -6.6825    0.0000 C   0  0  0  0  0  0  0  0  0  0  0  0
    8.5960   -6.2700    0.0000 C   0  0  0  0  0  0  0  0  0  0  0  0
    7.8816   -6.6825    0.0000 C   0  0  0  0  0  0  0  0  0  0  0  0
    5.7381   -7.9200    0.0000 C   0  0  0  0  0  0  0  0  0  0  0  0
    5.0237   -7.5075    0.0000 C   0  0  0  0  0  0  0  0  0  0  0  0
    4.3092   -8.7450    0.0000 O   0  0  0  0  0  0  0  0  0  0  0  0
    5.7381   -6.2700    0.0000 C   0  0  0  0  0  0  0  0  0  0  0  0
    5.0237   -6.6825    0.0000 C   0  0  0  0  0  0  0  0  0  0  0  0
    4.3092   -6.2700    0.0000 C   0  0  0  0  0  0  0  0  0  0  0  0
   10.7394   -7.5075    0.0000 O   0  0  0  0  0  0  0  0  0  0  0  0
    8.5960   -5.4450    0.0000 C   0  0  0  0  0  0  0  0  0  0  0  0
   10.0250   -6.2700    0.0000 O   0  0  0  0  0  0  0  0  0  0  0  0
    9.3105   -5.8575    0.0000 C   0  0  0  0  0  0  0  0  0  0  0  0
  1  2  2  0  0  0  0
  2  3  1  0  0  0  0
  3  4  2  0  0  0  0
  4  5  1  0  0  0  0
  5  6  2  0  0  0  0
  6  1  1  0  0  0  0
  4  7  1  0  0  0  0
  7  8  1  0  0  0  0
  8  9  2  0  0  0  0
  9 10  1  0  0  0  0
 10  5  1  0  0  0  0
  3 11  1  0  0  0  0
 12  7  2  0  0  0  0
  9 13  1  0  0  0  0
 13 14  2  0  0  0  0
 14 15  1  0  0  0  0
 13 16  1  0  0  0  0
 16 17  2  0  0  0  0
 17 18  1  0  0  0  0
 18 19  2  0  0  0  0
 19 14  1  0  0  0  0
 19 20  1  0  0  0  0
 20 21  1  0  0  0  0
 21 22  2  0  0  0  0
 22 15  1  0  0  0  0
  6 23  1  0  0  0  0
 23 24  1  0  0  0  0
 25  1  1  0  0  0  0
 26 27  1  0  0  0  0
 27 24  2  0  0  0  0
 27 28  1  0  0  0  0
 18 29  1  0  0  0  0
 21 30  1  0  0  0  0
 20 31  1  0  0  0  0
 20 32  1  0  0  0  0
M  END
>  <cdx:fragmentId>
5

$$$$
