99814.cdx
  Mrv1902 05222410282D          

 59 66  0  0  0  0            999 V2000
    8.6980  -10.5164    0.0000 C   0  0  0  0  0  0  0  0  0  0  0  0
    9.4125  -10.1039    0.0000 C   0  0  1  0  0  0  0  0  0  0  0  0
    9.4125   -9.2789    0.0000 C   0  0  2  0  0  0  0  0  0  0  0  0
    8.6980   -8.8664    0.0000 O   0  0  0  0  0  0  0  0  0  0  0  0
   10.1269  -10.5164    0.0000 O   0  0  0  0  0  0  0  0  0  0  0  0
   10.8414  -10.1039    0.0000 C   0  0  1  0  0  0  0  0  0  0  0  0
   10.8414   -9.2789    0.0000 C   0  0  0  0  0  0  0  0  0  0  0  0
   10.1269   -8.8664    0.0000 C   0  0  1  0  0  0  0  0  0  0  0  0
   11.5559  -10.5164    0.0000 O   0  0  0  0  0  0  0  0  0  0  0  0
   12.2703  -10.1039    0.0000 C   0  0  1  0  0  0  0  0  0  0  0  0
   12.2703   -9.2789    0.0000 C   0  0  0  0  0  0  0  0  0  0  0  0
   12.9848  -10.5164    0.0000 C   0  0  0  0  0  0  0  0  0  0  0  0
   13.6993  -10.1039    0.0000 C   0  0  2  0  0  0  0  0  0  0  0  0
   13.6993   -9.2789    0.0000 C   0  0  2  0  0  0  0  0  0  0  0  0
   12.9848   -8.8664    0.0000 C   0  0  0  0  0  0  0  0  0  0  0  0
   14.4137  -10.5164    0.0000 C   0  0  0  0  0  0  0  0  0  0  0  0
   15.1282  -10.1039    0.0000 C   0  0  0  0  0  0  0  0  0  0  0  0
   15.1282   -9.2789    0.0000 C   0  0  2  0  0  0  0  0  0  0  0  0
   14.4137   -8.8664    0.0000 C   0  0  2  0  0  0  0  0  0  0  0  0
   15.8427   -8.8664    0.0000 C   0  0  2  0  0  0  0  0  0  0  0  0
   15.8427   -8.0414    0.0000 C   0  0  2  0  0  0  0  0  0  0  0  0
   15.1282   -7.6289    0.0000 C   0  0  1  0  0  0  0  0  0  0  0  0
   14.4137   -8.0414    0.0000 C   0  0  0  0  0  0  0  0  0  0  0  0
   16.6273   -9.1214    0.0000 C   0  0  0  0  0  0  0  0  0  0  0  0
   17.1122   -8.4539    0.0000 C   0  0  0  0  0  0  0  0  0  0  0  0
   16.6273   -7.7865    0.0000 C   0  0  2  0  0  0  0  0  0  0  0  0
   16.8823   -7.0019    0.0000 C   0  0  0  0  0  0  0  0  0  0  0  0
   17.6669   -6.7469    0.0000 C   0  0  0  0  0  0  0  0  0  0  0  0
   17.6669   -5.9219    0.0000 C   0  0  0  0  0  0  0  0  0  0  0  0
   16.8823   -5.6670    0.0000 O   0  0  0  0  0  0  0  0  0  0  0  0
   16.3973   -6.3344    0.0000 C   0  0  0  0  0  0  0  0  0  0  0  0
   18.3343   -5.4370    0.0000 O   0  0  0  0  0  0  0  0  0  0  0  0
   13.6993   -8.4539    0.0000 C   0  0  0  0  0  0  0  0  0  0  0  0
   13.6993  -10.9289    0.0000 H   0  0  0  0  0  0  0  0  0  0  0  0
   15.1282   -8.4539    0.0000 H   0  0  0  0  0  0  0  0  0  0  0  0
   15.1282   -6.8039    0.0000 O   0  0  0  0  0  0  0  0  0  0  0  0
   15.9289   -7.2210    0.0000 C   0  0  0  0  0  0  0  0  0  0  0  0
   15.9289   -9.6869    0.0000 O   0  0  0  0  0  0  0  0  0  0  0  0
   10.1269   -8.0414    0.0000 O   0  0  0  0  0  0  0  0  0  0  0  0
   14.4137   -9.6914    0.0000 H   0  0  0  0  0  0  0  0  0  0  0  0
    7.2549  -11.3467    0.0000 O   0  0  0  0  0  0  0  0  0  0  0  0
    7.2552  -10.5217    0.0000 C   0  0  2  0  0  0  0  0  0  0  0  0
    7.9698  -10.1094    0.0000 C   0  0  0  0  0  0  0  0  0  0  0  0
    7.9700   -9.2844    0.0000 C   0  0  2  0  0  0  0  0  0  0  0  0
    7.2556   -8.8717    0.0000 O   0  0  0  0  0  0  0  0  0  0  0  0
    5.8262  -10.5213    0.0000 O   0  0  0  0  0  0  0  0  0  0  0  0
    6.5408  -10.1090    0.0000 C   0  0  1  0  0  0  0  0  0  0  0  0
    6.5411   -9.2840    0.0000 C   0  0  2  0  0  0  0  0  0  0  0  0
    5.8267   -8.8713    0.0000 C   0  0  0  0  0  0  0  0  0  0  0  0
    3.6982   -9.2769    0.0000 C   0  0  1  0  0  0  0  0  0  0  0  0
    3.6982  -10.1019    0.0000 C   0  0  1  0  0  0  0  0  0  0  0  0
    4.4126  -10.5144    0.0000 C   0  0  2  0  0  0  0  0  0  0  0  0
    5.1271  -10.1019    0.0000 C   0  0  1  0  0  0  0  0  0  0  0  0
    5.1271   -9.2769    0.0000 O   0  0  0  0  0  0  0  0  0  0  0  0
    4.4126   -8.8644    0.0000 C   0  0  2  0  0  0  0  0  0  0  0  0
    2.9837  -10.5144    0.0000 O   0  0  0  0  0  0  0  0  0  0  0  0
    4.4126   -8.0394    0.0000 C   0  0  0  0  0  0  0  0  0  0  0  0
    2.9837   -8.8644    0.0000 O   0  0  0  0  0  0  0  0  0  0  0  0
    4.4126  -11.3394    0.0000 O   0  0  0  0  0  0  0  0  0  0  0  0
  2  1  1  1  0  0  0
  2  3  1  0  0  0  0
  3  4  1  6  0  0  0
  2  5  1  0  0  0  0
  5  6  1  0  0  0  0
  6  7  1  0  0  0  0
  7  8  1  0  0  0  0
  8  3  1  0  0  0  0
  6  9  1  1  0  0  0
 10  9  1  1  0  0  0
 10 11  1  0  0  0  0
 10 12  1  0  0  0  0
 12 13  1  0  0  0  0
 13 14  1  0  0  0  0
 14 15  1  0  0  0  0
 15 11  1  0  0  0  0
 13 16  1  0  0  0  0
 16 17  1  0  0  0  0
 17 18  1  0  0  0  0
 18 19  1  0  0  0  0
 19 14  1  0  0  0  0
 18 20  1  0  0  0  0
 20 21  1  0  0  0  0
 21 22  1  0  0  0  0
 22 23  1  0  0  0  0
 23 19  1  0  0  0  0
 20 24  1  0  0  0  0
 24 25  1  0  0  0  0
 25 26  1  0  0  0  0
 26 21  1  0  0  0  0
 26 27  1  1  0  0  0
 27 28  2  0  0  0  0
 28 29  1  0  0  0  0
 29 30  1  0  0  0  0
 30 31  1  0  0  0  0
 31 27  1  0  0  0  0
 29 32  2  0  0  0  0
 14 33  1  1  0  0  0
 13 34  1  1  0  0  0
 18 35  1  1  0  0  0
 22 36  1  1  0  0  0
 21 37  1  1  0  0  0
 20 38  1  1  0  0  0
  8 39  1  6  0  0  0
 19 40  1  6  0  0  0
 42 41  1  1  0  0  0
 42 47  1  0  0  0  0
 43 42  1  0  0  0  0
 44 43  1  0  0  0  0
 45 44  1  0  0  0  0
 48 45  1  0  0  0  0
 47 46  1  1  0  0  0
 48 47  1  0  0  0  0
 48 49  1  6  0  0  0
 44  4  1  6  0  0  0
 50 51  1  0  0  0  0
 51 52  1  0  0  0  0
 52 53  1  0  0  0  0
 53 54  1  0  0  0  0
 54 55  1  0  0  0  0
 55 50  1  0  0  0  0
 51 56  1  1  0  0  0
 55 57  1  1  0  0  0
 50 58  1  6  0  0  0
 52 59  1  6  0  0  0
 53 46  1  1  0  0  0
M  END
>  <cdx:fragmentId>
5

$$$$
