99819.cdx
  Mrv1902 05222410182D          

 93 98  0  0  0  0            999 V2000
    4.8266  -13.7544    0.0000 C   0  0  0  0  0  0  0  0  0  0  0  0
    5.2253  -14.4766    0.0000 C   0  0  0  0  0  0  0  0  0  0  0  0
    6.0501  -14.4925    0.0000 C   0  0  0  0  0  0  0  0  0  0  0  0
    6.4763  -13.7860    0.0000 C   0  0  0  0  0  0  0  0  0  0  0  0
    6.0776  -13.0638    0.0000 C   0  0  0  0  0  0  0  0  0  0  0  0
    5.2527  -13.0479    0.0000 C   0  0  0  0  0  0  0  0  0  0  0  0
    4.0017  -13.7385    0.0000 O   0  0  0  0  0  0  0  0  0  0  0  0
    3.5756  -14.4449    0.0000 C   0  0  0  0  0  0  0  0  0  0  0  0
    4.7991  -15.1830    0.0000 O   0  0  0  0  0  0  0  0  0  0  0  0
    6.4488  -15.2147    0.0000 O   0  0  0  0  0  0  0  0  0  0  0  0
    6.0227  -15.9211    0.0000 C   0  0  0  0  0  0  0  0  0  0  0  0
    6.5037  -12.3574    0.0000 C   0  0  0  0  0  0  0  0  0  0  0  0
    7.3286  -12.3732    0.0000 C   0  0  0  0  0  0  0  0  0  0  0  0
    7.7547  -11.6668    0.0000 C   0  0  0  0  0  0  0  0  0  0  0  0
    8.5796  -11.6826    0.0000 O   0  0  0  0  0  0  0  0  0  0  0  0
    9.0057  -10.9762    0.0000 C   0  0  0  0  0  0  0  0  0  0  0  0
    9.8305  -10.9921    0.0000 C   0  0  0  0  0  0  0  0  0  0  0  0
    8.6070  -10.2539    0.0000 O   0  0  0  0  0  0  0  0  0  0  0  0
   10.2567  -10.2856    0.0000 C   0  0  2  0  0  0  0  0  0  0  0  0
   11.0815  -10.3015    0.0000 C   0  0  0  0  0  0  0  0  0  0  0  0
   11.5077   -9.5951    0.0000 C   0  0  0  0  0  0  0  0  0  0  0  0
   12.3325   -9.6109    0.0000 O   0  0  0  0  0  0  0  0  0  0  0  0
   11.1090   -8.8728    0.0000 O   0  0  0  0  0  0  0  0  0  0  0  0
    9.5503   -9.8595    0.0000 O   0  0  0  0  0  0  0  0  0  0  0  0
   10.2725   -9.4608    0.0000 C   0  0  0  0  0  0  0  0  0  0  0  0
    8.8299   -8.6014    0.0000 C   0  0  2  0  0  0  0  0  0  0  0  0
    8.8427   -7.7765    0.0000 C   0  0  2  0  0  0  0  0  0  0  0  0
    8.1347   -7.3530    0.0000 C   0  0  1  0  0  0  0  0  0  0  0  0
    7.4139   -7.7543    0.0000 C   0  0  2  0  0  0  0  0  0  0  0  0
    7.4011   -8.5792    0.0000 C   0  0  1  0  0  0  0  0  0  0  0  0
    8.1091   -9.0028    0.0000 O   0  0  0  0  0  0  0  0  0  0  0  0
    9.5378   -9.0249    0.0000 C   0  0  0  0  0  0  0  0  0  0  0  0
    8.1475   -6.5281    0.0000 O   0  0  0  0  0  0  0  0  0  0  0  0
    6.6803   -8.9806    0.0000 O   0  0  0  0  0  0  0  0  0  0  0  0
    9.5634   -7.3751    0.0000 O   0  0  0  0  0  0  0  0  0  0  0  0
    6.7059   -7.3308    0.0000 O   0  0  0  0  0  0  0  0  0  0  0  0
   13.5593  -10.3412    0.0000 C   0  0  2  0  0  0  0  0  0  0  0  0
   13.9580  -11.0635    0.0000 C   0  0  2  0  0  0  0  0  0  0  0  0
   14.7829  -11.0793    0.0000 C   0  0  1  0  0  0  0  0  0  0  0  0
   15.2090  -10.3729    0.0000 C   0  0  2  0  0  0  0  0  0  0  0  0
   14.8103   -9.6506    0.0000 C   0  0  1  0  0  0  0  0  0  0  0  0
   13.9855   -9.6348    0.0000 O   0  0  0  0  0  0  0  0  0  0  0  0
   12.7345  -10.3253    0.0000 C   0  0  0  0  0  0  0  0  0  0  0  0
   15.1816  -11.8016    0.0000 O   0  0  0  0  0  0  0  0  0  0  0  0
   15.2365   -8.9442    0.0000 O   0  0  0  0  0  0  0  0  0  0  0  0
   13.5319  -11.7699    0.0000 O   0  0  0  0  0  0  0  0  0  0  0  0
   16.0339  -10.3887    0.0000 O   0  0  0  0  0  0  0  0  0  0  0  0
    2.6506  -15.5971    0.0000 C   0  0  2  0  0  0  0  0  0  0  0  0
    2.6531  -16.4221    0.0000 C   0  0  2  0  0  0  0  0  0  0  0  0
    3.3689  -16.8324    0.0000 C   0  0  1  0  0  0  0  0  0  0  0  0
    4.0821  -16.4177    0.0000 C   0  0  2  0  0  0  0  0  0  0  0  0
    4.0796  -15.5927    0.0000 C   0  0  1  0  0  0  0  0  0  0  0  0
    3.3639  -15.1824    0.0000 O   0  0  0  0  0  0  0  0  0  0  0  0
    1.9349  -15.1867    0.0000 C   0  0  0  0  0  0  0  0  0  0  0  0
    3.3714  -17.6574    0.0000 O   0  0  0  0  0  0  0  0  0  0  0  0
    1.9399  -16.8367    0.0000 O   0  0  0  0  0  0  0  0  0  0  0  0
    4.7978  -16.8281    0.0000 O   0  0  0  0  0  0  0  0  0  0  0  0
    1.2217  -15.6014    0.0000 O   0  0  0  0  0  0  0  0  0  0  0  0
   13.5123   -7.8027    0.0000 O   0  0  0  0  0  0  0  0  0  0  0  0
   14.2242   -8.2197    0.0000 C   0  0  0  0  0  0  0  0  0  0  0  0
   14.9412   -7.8118    0.0000 C   0  0  0  0  0  0  0  0  0  0  0  0
   14.2189   -9.0447    0.0000 O   0  0  0  0  0  0  0  0  0  0  0  0
   15.6531   -8.2288    0.0000 C   0  0  1  0  0  0  0  0  0  0  0  0
   16.3702   -7.8209    0.0000 C   0  0  0  0  0  0  0  0  0  0  0  0
   17.0820   -8.2379    0.0000 C   0  0  0  0  0  0  0  0  0  0  0  0
   17.7991   -7.8300    0.0000 O   0  0  0  0  0  0  0  0  0  0  0  0
   17.0767   -9.0629    0.0000 O   0  0  0  0  0  0  0  0  0  0  0  0
   18.5109   -8.2470    0.0000 C   0  0  0  0  0  0  0  0  0  0  0  0
   19.2280   -7.8390    0.0000 C   0  0  0  0  0  0  0  0  0  0  0  0
   19.9398   -8.2561    0.0000 C   0  0  0  0  0  0  0  0  0  0  0  0
   20.6569   -7.8481    0.0000 C   0  0  0  0  0  0  0  0  0  0  0  0
   21.3687   -8.2652    0.0000 C   0  0  0  0  0  0  0  0  0  0  0  0
   22.0858   -7.8572    0.0000 C   0  0  0  0  0  0  0  0  0  0  0  0
   22.0911   -7.0322    0.0000 C   0  0  0  0  0  0  0  0  0  0  0  0
   21.3792   -6.6152    0.0000 C   0  0  0  0  0  0  0  0  0  0  0  0
   20.6621   -7.0231    0.0000 C   0  0  0  0  0  0  0  0  0  0  0  0
   21.3845   -5.7902    0.0000 O   0  0  0  0  0  0  0  0  0  0  0  0
   22.1015   -5.3823    0.0000 C   0  0  0  0  0  0  0  0  0  0  0  0
   22.8081   -6.6243    0.0000 O   0  0  0  0  0  0  0  0  0  0  0  0
   22.7976   -8.2742    0.0000 O   0  0  0  0  0  0  0  0  0  0  0  0
   22.7976   -9.0992    0.0000 C   0  0  0  0  0  0  0  0  0  0  0  0
   16.0610   -8.9459    0.0000 C   0  0  0  0  0  0  0  0  0  0  0  0
   24.2674   -8.2487    0.0000 C   0  0  2  0  0  0  0  0  0  0  0  0
   24.9762   -7.8266    0.0000 C   0  0  2  0  0  0  0  0  0  0  0  0
   24.9650   -7.0016    0.0000 C   0  0  1  0  0  0  0  0  0  0  0  0
   24.2450   -6.5989    0.0000 C   0  0  2  0  0  0  0  0  0  0  0  0
   23.5362   -7.0210    0.0000 C   0  0  1  0  0  0  0  0  0  0  0  0
   23.5474   -7.8459    0.0000 O   0  0  0  0  0  0  0  0  0  0  0  0
   24.2786   -9.0736    0.0000 C   0  0  0  0  0  0  0  0  0  0  0  0
   25.6738   -6.5795    0.0000 O   0  0  0  0  0  0  0  0  0  0  0  0
   25.6962   -8.2293    0.0000 O   0  0  0  0  0  0  0  0  0  0  0  0
   24.2338   -5.7739    0.0000 O   0  0  0  0  0  0  0  0  0  0  0  0
   24.9986   -9.4764    0.0000 O   0  0  0  0  0  0  0  0  0  0  0  0
  1  2  2  0  0  0  0
  2  3  1  0  0  0  0
  3  4  2  0  0  0  0
  4  5  1  0  0  0  0
  5  6  2  0  0  0  0
  6  1  1  0  0  0  0
  1  7  1  0  0  0  0
  7  8  1  0  0  0  0
  2  9  1  0  0  0  0
  3 10  1  0  0  0  0
 10 11  1  0  0  0  0
  5 12  1  0  0  0  0
 12 13  2  0  0  0  0
 13 14  1  0  0  0  0
 14 15  1  0  0  0  0
 15 16  1  0  0  0  0
 16 17  1  0  0  0  0
 16 18  2  0  0  0  0
 17 19  1  0  0  0  0
 19 20  1  0  0  0  0
 20 21  1  0  0  0  0
 21 22  1  0  0  0  0
 21 23  2  0  0  0  0
 19 24  1  1  0  0  0
 19 25  1  6  0  0  0
 26 27  1  0  0  0  0
 27 28  1  0  0  0  0
 28 29  1  0  0  0  0
 29 30  1  0  0  0  0
 30 31  1  0  0  0  0
 31 26  1  0  0  0  0
 26 32  1  1  0  0  0
 28 33  1  1  0  0  0
 30 34  1  1  0  0  0
 27 35  1  6  0  0  0
 29 36  1  6  0  0  0
 37 38  1  0  0  0  0
 38 39  1  0  0  0  0
 39 40  1  0  0  0  0
 40 41  1  0  0  0  0
 41 42  1  0  0  0  0
 42 37  1  0  0  0  0
 37 43  1  1  0  0  0
 39 44  1  1  0  0  0
 41 45  1  1  0  0  0
 38 46  1  6  0  0  0
 40 47  1  6  0  0  0
 32 24  1  0  0  0  0
 43 22  1  0  0  0  0
 48 49  1  0  0  0  0
 49 50  1  0  0  0  0
 50 51  1  0  0  0  0
 51 52  1  0  0  0  0
 52 53  1  0  0  0  0
 53 48  1  0  0  0  0
 48 54  1  1  0  0  0
 50 55  1  1  0  0  0
 49 56  1  6  0  0  0
 51 57  1  6  0  0  0
 54 58  1  0  0  0  0
 52  9  1  1  0  0  0
 59 60  1  0  0  0  0
 60 61  1  0  0  0  0
 60 62  2  0  0  0  0
 61 63  1  0  0  0  0
 63 64  1  0  0  0  0
 64 65  1  0  0  0  0
 65 66  1  0  0  0  0
 65 67  2  0  0  0  0
 66 68  1  0  0  0  0
 68 69  1  0  0  0  0
 69 70  2  0  0  0  0
 70 71  1  0  0  0  0
 71 72  2  0  0  0  0
 72 73  1  0  0  0  0
 73 74  2  0  0  0  0
 74 75  1  0  0  0  0
 75 76  2  0  0  0  0
 76 71  1  0  0  0  0
 75 77  1  0  0  0  0
 77 78  1  0  0  0  0
 74 79  1  0  0  0  0
 73 80  1  0  0  0  0
 80 81  1  0  0  0  0
 63 82  1  6  0  0  0
 83 84  1  0  0  0  0
 84 85  1  0  0  0  0
 85 86  1  0  0  0  0
 86 87  1  0  0  0  0
 87 88  1  0  0  0  0
 88 83  1  0  0  0  0
 83 89  1  1  0  0  0
 85 90  1  1  0  0  0
 84 91  1  6  0  0  0
 86 92  1  6  0  0  0
 89 93  1  0  0  0  0
 87 79  1  1  0  0  0
 63 45  1  1  0  0  0
M  END
>  <cdx:fragmentId>
5

$$$$
