99813.cdx
  Mrv1902 05222410272D          

 58 65  0  0  0  0            999 V2000
    8.6733  -10.8732    0.0000 C   0  0  0  0  0  0  0  0  0  0  0  0
    9.3878  -10.4607    0.0000 C   0  0  1  0  0  0  0  0  0  0  0  0
    9.3878   -9.6357    0.0000 C   0  0  2  0  0  0  0  0  0  0  0  0
    8.6733   -9.2232    0.0000 O   0  0  0  0  0  0  0  0  0  0  0  0
   10.1023  -10.8732    0.0000 O   0  0  0  0  0  0  0  0  0  0  0  0
   10.8168  -10.4607    0.0000 C   0  0  1  0  0  0  0  0  0  0  0  0
   10.8168   -9.6357    0.0000 C   0  0  0  0  0  0  0  0  0  0  0  0
   10.1023   -9.2232    0.0000 C   0  0  1  0  0  0  0  0  0  0  0  0
   11.5312  -10.8732    0.0000 O   0  0  0  0  0  0  0  0  0  0  0  0
   12.2457  -10.4607    0.0000 C   0  0  1  0  0  0  0  0  0  0  0  0
   12.2457   -9.6357    0.0000 C   0  0  0  0  0  0  0  0  0  0  0  0
   12.9602  -10.8732    0.0000 C   0  0  0  0  0  0  0  0  0  0  0  0
   13.6746  -10.4607    0.0000 C   0  0  2  0  0  0  0  0  0  0  0  0
   13.6746   -9.6357    0.0000 C   0  0  2  0  0  0  0  0  0  0  0  0
   12.9602   -9.2232    0.0000 C   0  0  0  0  0  0  0  0  0  0  0  0
   14.3891  -10.8732    0.0000 C   0  0  0  0  0  0  0  0  0  0  0  0
   15.1036  -10.4607    0.0000 C   0  0  0  0  0  0  0  0  0  0  0  0
   15.1036   -9.6357    0.0000 C   0  0  2  0  0  0  0  0  0  0  0  0
   14.3891   -9.2232    0.0000 C   0  0  2  0  0  0  0  0  0  0  0  0
   15.8181   -9.2232    0.0000 C   0  0  2  0  0  0  0  0  0  0  0  0
   15.8181   -8.3982    0.0000 C   0  0  2  0  0  0  0  0  0  0  0  0
   15.1036   -7.9857    0.0000 C   0  0  1  0  0  0  0  0  0  0  0  0
   14.3891   -8.3982    0.0000 C   0  0  0  0  0  0  0  0  0  0  0  0
   16.6027   -9.4781    0.0000 C   0  0  0  0  0  0  0  0  0  0  0  0
   17.0876   -8.8107    0.0000 C   0  0  0  0  0  0  0  0  0  0  0  0
   16.6027   -8.1432    0.0000 C   0  0  2  0  0  0  0  0  0  0  0  0
   16.8576   -7.3586    0.0000 C   0  0  0  0  0  0  0  0  0  0  0  0
   17.6422   -7.1037    0.0000 C   0  0  0  0  0  0  0  0  0  0  0  0
   17.6422   -6.2787    0.0000 C   0  0  0  0  0  0  0  0  0  0  0  0
   16.8576   -6.0237    0.0000 O   0  0  0  0  0  0  0  0  0  0  0  0
   16.3727   -6.6912    0.0000 C   0  0  0  0  0  0  0  0  0  0  0  0
   18.3097   -5.7937    0.0000 O   0  0  0  0  0  0  0  0  0  0  0  0
   13.6746   -8.8107    0.0000 C   0  0  0  0  0  0  0  0  0  0  0  0
   13.6746  -11.2857    0.0000 H   0  0  0  0  0  0  0  0  0  0  0  0
   15.1036   -8.8107    0.0000 H   0  0  0  0  0  0  0  0  0  0  0  0
   15.1036   -7.1607    0.0000 O   0  0  0  0  0  0  0  0  0  0  0  0
   15.9043   -7.5777    0.0000 C   0  0  0  0  0  0  0  0  0  0  0  0
   15.9043  -10.0436    0.0000 O   0  0  0  0  0  0  0  0  0  0  0  0
   10.1023   -8.3982    0.0000 O   0  0  0  0  0  0  0  0  0  0  0  0
   14.3891  -10.0482    0.0000 H   0  0  0  0  0  0  0  0  0  0  0  0
    7.2303  -11.7034    0.0000 O   0  0  0  0  0  0  0  0  0  0  0  0
    7.2305  -10.8784    0.0000 C   0  0  2  0  0  0  0  0  0  0  0  0
    7.9451  -10.4661    0.0000 C   0  0  0  0  0  0  0  0  0  0  0  0
    7.9454   -9.6411    0.0000 C   0  0  2  0  0  0  0  0  0  0  0  0
    7.2310   -9.2284    0.0000 O   0  0  0  0  0  0  0  0  0  0  0  0
    5.8016  -10.8780    0.0000 O   0  0  0  0  0  0  0  0  0  0  0  0
    6.5162  -10.4657    0.0000 C   0  0  1  0  0  0  0  0  0  0  0  0
    6.5164   -9.6407    0.0000 C   0  0  2  0  0  0  0  0  0  0  0  0
    5.8021   -9.2280    0.0000 C   0  0  0  0  0  0  0  0  0  0  0  0
    4.3708  -11.6961    0.0000 O   0  0  0  0  0  0  0  0  0  0  0  0
    2.9419   -9.2211    0.0000 O   0  0  0  0  0  0  0  0  0  0  0  0
    2.9419  -10.8711    0.0000 O   0  0  0  0  0  0  0  0  0  0  0  0
    4.3708  -10.8711    0.0000 C   0  0  2  0  0  0  0  0  0  0  0  0
    5.0853  -10.4586    0.0000 C   0  0  2  0  0  0  0  0  0  0  0  0
    5.0853   -9.6336    0.0000 O   0  0  0  0  0  0  0  0  0  0  0  0
    4.3708   -9.2211    0.0000 C   0  0  0  0  0  0  0  0  0  0  0  0
    3.6564   -9.6336    0.0000 C   0  0  1  0  0  0  0  0  0  0  0  0
    3.6564  -10.4586    0.0000 C   0  0  1  0  0  0  0  0  0  0  0  0
  2  1  1  1  0  0  0
  2  3  1  0  0  0  0
  3  4  1  6  0  0  0
  2  5  1  0  0  0  0
  5  6  1  0  0  0  0
  6  7  1  0  0  0  0
  7  8  1  0  0  0  0
  8  3  1  0  0  0  0
  6  9  1  1  0  0  0
 10  9  1  1  0  0  0
 10 11  1  0  0  0  0
 10 12  1  0  0  0  0
 12 13  1  0  0  0  0
 13 14  1  0  0  0  0
 14 15  1  0  0  0  0
 15 11  1  0  0  0  0
 13 16  1  0  0  0  0
 16 17  1  0  0  0  0
 17 18  1  0  0  0  0
 18 19  1  0  0  0  0
 19 14  1  0  0  0  0
 18 20  1  0  0  0  0
 20 21  1  0  0  0  0
 21 22  1  0  0  0  0
 22 23  1  0  0  0  0
 23 19  1  0  0  0  0
 20 24  1  0  0  0  0
 24 25  1  0  0  0  0
 25 26  1  0  0  0  0
 26 21  1  0  0  0  0
 26 27  1  1  0  0  0
 27 28  2  0  0  0  0
 28 29  1  0  0  0  0
 29 30  1  0  0  0  0
 30 31  1  0  0  0  0
 31 27  1  0  0  0  0
 29 32  2  0  0  0  0
 14 33  1  1  0  0  0
 13 34  1  1  0  0  0
 18 35  1  1  0  0  0
 22 36  1  1  0  0  0
 21 37  1  1  0  0  0
 20 38  1  1  0  0  0
  8 39  1  6  0  0  0
 19 40  1  6  0  0  0
 42 41  1  1  0  0  0
 42 47  1  0  0  0  0
 43 42  1  0  0  0  0
 44 43  1  0  0  0  0
 45 44  1  0  0  0  0
 48 45  1  0  0  0  0
 47 46  1  1  0  0  0
 48 47  1  0  0  0  0
 48 49  1  6  0  0  0
 44  4  1  6  0  0  0
 53 50  1  1  0  0  0
 57 51  1  1  0  0  0
 58 52  1  6  0  0  0
 53 58  1  0  0  0  0
 54 53  1  0  0  0  0
 55 54  1  0  0  0  0
 56 55  1  0  0  0  0
 57 56  1  0  0  0  0
 58 57  1  0  0  0  0
 54 46  1  6  0  0  0
M  END
>  <cdx:fragmentId>
5

$$$$
