99812.cdx
  Mrv1902 05222410272D          

 58 65  0  0  0  0            999 V2000
    5.7181   -9.9291    0.0000 C   0  0  0  0  0  0  0  0  0  0  0  0
    6.2897   -9.5991    0.0000 C   0  0  1  0  0  0  0  0  0  0  0  0
    6.2897   -8.9391    0.0000 C   0  0  2  0  0  0  0  0  0  0  0  0
    5.7181   -8.6091    0.0000 O   0  0  0  0  0  0  0  0  0  0  0  0
    6.8613   -9.9291    0.0000 O   0  0  0  0  0  0  0  0  0  0  0  0
    7.4329   -9.5991    0.0000 C   0  0  1  0  0  0  0  0  0  0  0  0
    7.4329   -8.9391    0.0000 C   0  0  0  0  0  0  0  0  0  0  0  0
    6.8613   -8.6091    0.0000 C   0  0  1  0  0  0  0  0  0  0  0  0
    8.0044   -9.9291    0.0000 O   0  0  0  0  0  0  0  0  0  0  0  0
    8.5760   -9.5991    0.0000 C   0  0  1  0  0  0  0  0  0  0  0  0
    8.5760   -8.9391    0.0000 C   0  0  0  0  0  0  0  0  0  0  0  0
    9.1476   -9.9291    0.0000 C   0  0  0  0  0  0  0  0  0  0  0  0
    9.7192   -9.5991    0.0000 C   0  0  2  0  0  0  0  0  0  0  0  0
    9.7192   -8.9391    0.0000 C   0  0  2  0  0  0  0  0  0  0  0  0
    9.1476   -8.6091    0.0000 C   0  0  0  0  0  0  0  0  0  0  0  0
   10.2907   -9.9291    0.0000 C   0  0  0  0  0  0  0  0  0  0  0  0
   10.8623   -9.5991    0.0000 C   0  0  0  0  0  0  0  0  0  0  0  0
   10.8623   -8.9391    0.0000 C   0  0  2  0  0  0  0  0  0  0  0  0
   10.2907   -8.6091    0.0000 C   0  0  2  0  0  0  0  0  0  0  0  0
   11.4339   -8.6091    0.0000 C   0  0  2  0  0  0  0  0  0  0  0  0
   11.4339   -7.9491    0.0000 C   0  0  2  0  0  0  0  0  0  0  0  0
   10.8623   -7.6191    0.0000 C   0  0  1  0  0  0  0  0  0  0  0  0
   10.2907   -7.9491    0.0000 C   0  0  0  0  0  0  0  0  0  0  0  0
   12.0616   -8.8131    0.0000 C   0  0  0  0  0  0  0  0  0  0  0  0
   12.4495   -8.2791    0.0000 C   0  0  0  0  0  0  0  0  0  0  0  0
   12.0616   -7.7452    0.0000 C   0  0  2  0  0  0  0  0  0  0  0  0
   12.2655   -7.1175    0.0000 C   0  0  0  0  0  0  0  0  0  0  0  0
   12.8932   -6.9135    0.0000 C   0  0  0  0  0  0  0  0  0  0  0  0
   12.8932   -6.2535    0.0000 C   0  0  0  0  0  0  0  0  0  0  0  0
   12.2655   -6.0496    0.0000 O   0  0  0  0  0  0  0  0  0  0  0  0
   11.8776   -6.5835    0.0000 C   0  0  0  0  0  0  0  0  0  0  0  0
   13.4272   -5.8656    0.0000 O   0  0  0  0  0  0  0  0  0  0  0  0
    9.7192   -8.2791    0.0000 C   0  0  0  0  0  0  0  0  0  0  0  0
    9.7192  -10.2591    0.0000 H   0  0  0  0  0  0  0  0  0  0  0  0
   10.8623   -8.2791    0.0000 H   0  0  0  0  0  0  0  0  0  0  0  0
   10.8623   -6.9591    0.0000 O   0  0  0  0  0  0  0  0  0  0  0  0
   11.5029   -7.2927    0.0000 C   0  0  0  0  0  0  0  0  0  0  0  0
   11.5029   -9.2655    0.0000 O   0  0  0  0  0  0  0  0  0  0  0  0
    6.8613   -7.9491    0.0000 O   0  0  0  0  0  0  0  0  0  0  0  0
   10.2907   -9.2691    0.0000 H   0  0  0  0  0  0  0  0  0  0  0  0
    4.5637  -10.5933    0.0000 O   0  0  0  0  0  0  0  0  0  0  0  0
    4.5639   -9.9333    0.0000 C   0  0  2  0  0  0  0  0  0  0  0  0
    5.1356   -9.6035    0.0000 C   0  0  0  0  0  0  0  0  0  0  0  0
    5.1357   -8.9435    0.0000 C   0  0  2  0  0  0  0  0  0  0  0  0
    4.5643   -8.6133    0.0000 O   0  0  0  0  0  0  0  0  0  0  0  0
    3.4207   -9.9330    0.0000 O   0  0  0  0  0  0  0  0  0  0  0  0
    3.9924   -9.6032    0.0000 C   0  0  1  0  0  0  0  0  0  0  0  0
    3.9926   -8.9432    0.0000 C   0  0  2  0  0  0  0  0  0  0  0  0
    3.4211   -8.6130    0.0000 C   0  0  0  0  0  0  0  0  0  0  0  0
    2.2821   -8.6206    0.0000 C   0  0  1  0  0  0  0  0  0  0  0  0
    1.7107   -8.9510    0.0000 C   0  0  1  0  0  0  0  0  0  0  0  0
    1.7111   -9.6110    0.0000 C   0  0  2  0  0  0  0  0  0  0  0  0
    2.2828   -9.9406    0.0000 O   0  0  0  0  0  0  0  0  0  0  0  0
    2.8542   -9.6103    0.0000 C   0  0  2  0  0  0  0  0  0  0  0  0
    2.8539   -8.9503    0.0000 C   0  0  0  0  0  0  0  0  0  0  0  0
    1.1389   -8.6213    0.0000 O   0  0  0  0  0  0  0  0  0  0  0  0
    2.2817   -7.9606    0.0000 O   0  0  0  0  0  0  0  0  0  0  0  0
    1.1397   -9.9413    0.0000 C   0  0  0  0  0  0  0  0  0  0  0  0
  2  1  1  1  0  0  0
  2  3  1  0  0  0  0
  3  4  1  6  0  0  0
  2  5  1  0  0  0  0
  5  6  1  0  0  0  0
  6  7  1  0  0  0  0
  7  8  1  0  0  0  0
  8  3  1  0  0  0  0
  6  9  1  1  0  0  0
 10  9  1  1  0  0  0
 10 11  1  0  0  0  0
 10 12  1  0  0  0  0
 12 13  1  0  0  0  0
 13 14  1  0  0  0  0
 14 15  1  0  0  0  0
 15 11  1  0  0  0  0
 13 16  1  0  0  0  0
 16 17  1  0  0  0  0
 17 18  1  0  0  0  0
 18 19  1  0  0  0  0
 19 14  1  0  0  0  0
 18 20  1  0  0  0  0
 20 21  1  0  0  0  0
 21 22  1  0  0  0  0
 22 23  1  0  0  0  0
 23 19  1  0  0  0  0
 20 24  1  0  0  0  0
 24 25  1  0  0  0  0
 25 26  1  0  0  0  0
 26 21  1  0  0  0  0
 26 27  1  1  0  0  0
 27 28  2  0  0  0  0
 28 29  1  0  0  0  0
 29 30  1  0  0  0  0
 30 31  1  0  0  0  0
 31 27  1  0  0  0  0
 29 32  2  0  0  0  0
 14 33  1  1  0  0  0
 13 34  1  1  0  0  0
 18 35  1  1  0  0  0
 22 36  1  1  0  0  0
 21 37  1  1  0  0  0
 20 38  1  1  0  0  0
  8 39  1  6  0  0  0
 19 40  1  6  0  0  0
 42 41  1  1  0  0  0
 42 47  1  0  0  0  0
 43 42  1  0  0  0  0
 44 43  1  0  0  0  0
 45 44  1  0  0  0  0
 48 45  1  0  0  0  0
 47 46  1  1  0  0  0
 48 47  1  0  0  0  0
 48 49  1  6  0  0  0
 50 51  1  0  0  0  0
 51 52  1  0  0  0  0
 52 53  1  0  0  0  0
 53 54  1  0  0  0  0
 54 55  1  0  0  0  0
 55 50  1  0  0  0  0
 51 56  1  1  0  0  0
 50 57  1  6  0  0  0
 52 58  1  6  0  0  0
 44  4  1  6  0  0  0
 54 46  1  6  0  0  0
M  END
>  <cdx:fragmentId>
5

$$$$
