99810.cdx
  Mrv1902 05222410262D          

 25 27  0  0  0  0            999 V2000
    6.1369   -6.0505    0.0000 C   0  0  0  0  0  0  0  0  0  0  0  0
    5.7244   -6.7650    0.0000 C   0  0  0  0  0  0  0  0  0  0  0  0
    6.1369   -7.4795    0.0000 C   0  0  0  0  0  0  0  0  0  0  0  0
    6.9619   -7.4795    0.0000 C   0  0  0  0  0  0  0  0  0  0  0  0
    7.3744   -6.7650    0.0000 C   0  0  0  0  0  0  0  0  0  0  0  0
    6.9619   -6.0505    0.0000 C   0  0  0  0  0  0  0  0  0  0  0  0
    4.8994   -6.7650    0.0000 C   0  0  0  0  0  0  0  0  0  0  0  0
    4.4869   -7.4795    0.0000 C   0  0  0  0  0  0  0  0  0  0  0  0
    4.8994   -8.1939    0.0000 C   0  0  0  0  0  0  0  0  0  0  0  0
    5.7244   -8.1939    0.0000 O   0  0  0  0  0  0  0  0  0  0  0  0
    7.5139   -8.0926    0.0000 C   0  0  0  0  0  0  0  0  0  0  0  0
    8.2676   -7.7570    0.0000 C   0  0  0  0  0  0  0  0  0  0  0  0
    8.1814   -6.9365    0.0000 O   0  0  0  0  0  0  0  0  0  0  0  0
    4.4869   -8.9084    0.0000 O   0  0  0  0  0  0  0  0  0  0  0  0
    7.3424   -8.8995    0.0000 O   0  0  0  0  0  0  0  0  0  0  0  0
    6.5455   -9.1131    0.0000 C   0  0  0  0  0  0  0  0  0  0  0  0
    6.3320   -9.9100    0.0000 C   0  0  0  0  0  0  0  0  0  0  0  0
    5.9622   -8.5297    0.0000 O   0  0  0  0  0  0  0  0  0  0  0  0
    5.5351  -10.1235    0.0000 C   0  0  0  0  0  0  0  0  0  0  0  0
    5.3216  -10.9204    0.0000 C   0  0  0  0  0  0  0  0  0  0  0  0
    4.9517   -9.5401    0.0000 C   0  0  0  0  0  0  0  0  0  0  0  0
    8.9821   -8.1695    0.0000 C   0  0  0  0  0  0  0  0  0  0  0  0
    9.6965   -8.5820    0.0000 C   0  0  0  0  0  0  0  0  0  0  0  0
    9.3946   -7.4550    0.0000 C   0  0  0  0  0  0  0  0  0  0  0  0
    8.5696   -8.8840    0.0000 O   0  0  0  0  0  0  0  0  0  0  0  0
  1  2  2  0  0  0  0
  2  3  1  0  0  0  0
  3  4  2  0  0  0  0
  4  5  1  0  0  0  0
  5  6  2  0  0  0  0
  6  1  1  0  0  0  0
  2  7  1  0  0  0  0
  7  8  2  0  0  0  0
  8  9  1  0  0  0  0
  9 10  1  0  0  0  0
 10  3  1  0  0  0  0
  4 11  1  0  0  0  0
 11 12  1  0  0  0  0
 12 13  1  0  0  0  0
 13  5  1  0  0  0  0
  9 14  2  0  0  0  0
 11 15  1  0  0  0  0
 15 16  1  0  0  0  0
 16 17  1  0  0  0  0
 16 18  2  0  0  0  0
 17 19  2  0  0  0  0
 19 20  1  0  0  0  0
 19 21  1  0  0  0  0
 12 22  1  0  0  0  0
 22 23  1  0  0  0  0
 22 24  1  0  0  0  0
 22 25  1  0  0  0  0
M  END
>  <cdx:fragmentId>
5

$$$$
