99818.cdx
  Mrv1902 05222410182D          

 58 61  0  0  0  0            999 V2000
    2.7701  -12.1265    0.0000 C   0  0  0  0  0  0  0  0  0  0  0  0
    3.1785  -12.8433    0.0000 C   0  0  0  0  0  0  0  0  0  0  0  0
    4.0034  -12.8481    0.0000 C   0  0  0  0  0  0  0  0  0  0  0  0
    4.4201  -12.1360    0.0000 C   0  0  0  0  0  0  0  0  0  0  0  0
    4.0117  -11.4192    0.0000 C   0  0  0  0  0  0  0  0  0  0  0  0
    3.1867  -11.4144    0.0000 C   0  0  0  0  0  0  0  0  0  0  0  0
    2.7618  -13.5554    0.0000 O   0  0  0  0  0  0  0  0  0  0  0  0
    4.4283  -10.7071    0.0000 C   0  0  0  0  0  0  0  0  0  0  0  0
    5.2533  -10.7119    0.0000 C   0  0  0  0  0  0  0  0  0  0  0  0
    5.6699   -9.9998    0.0000 C   0  0  0  0  0  0  0  0  0  0  0  0
    5.2616   -9.2830    0.0000 O   0  0  0  0  0  0  0  0  0  0  0  0
    6.4949  -10.0046    0.0000 O   0  0  0  0  0  0  0  0  0  0  0  0
    7.7442   -9.3027    0.0000 C   0  0  2  0  0  0  0  0  0  0  0  0
    8.1526  -10.0195    0.0000 C   0  0  2  0  0  0  0  0  0  0  0  0
    8.9775  -10.0243    0.0000 C   0  0  1  0  0  0  0  0  0  0  0  0
    9.3942   -9.3122    0.0000 C   0  0  2  0  0  0  0  0  0  0  0  0
    8.9858   -8.5954    0.0000 C   0  0  1  0  0  0  0  0  0  0  0  0
    8.1608   -8.5906    0.0000 O   0  0  0  0  0  0  0  0  0  0  0  0
    6.9192   -9.2979    0.0000 C   0  0  0  0  0  0  0  0  0  0  0  0
    9.3859  -10.7412    0.0000 O   0  0  0  0  0  0  0  0  0  0  0  0
    7.7359  -10.7316    0.0000 O   0  0  0  0  0  0  0  0  0  0  0  0
   10.2192   -9.3170    0.0000 O   0  0  0  0  0  0  0  0  0  0  0  0
   15.8260   -6.6299    0.0000 C   0  0  0  0  0  0  0  0  0  0  0  0
   15.8260   -5.8049    0.0000 C   0  0  0  0  0  0  0  0  0  0  0  0
   15.1116   -5.3924    0.0000 C   0  0  0  0  0  0  0  0  0  0  0  0
   14.3971   -5.8049    0.0000 C   0  0  0  0  0  0  0  0  0  0  0  0
   14.3971   -6.6299    0.0000 C   0  0  0  0  0  0  0  0  0  0  0  0
   15.1116   -7.0424    0.0000 C   0  0  0  0  0  0  0  0  0  0  0  0
   16.5405   -7.0424    0.0000 O   0  0  0  0  0  0  0  0  0  0  0  0
   16.5405   -7.8674    0.0000 C   0  0  0  0  0  0  0  0  0  0  0  0
   16.5405   -5.3924    0.0000 O   0  0  0  0  0  0  0  0  0  0  0  0
   15.1116   -4.5674    0.0000 O   0  0  0  0  0  0  0  0  0  0  0  0
   15.8260   -4.1549    0.0000 C   0  0  0  0  0  0  0  0  0  0  0  0
   13.6826   -7.0424    0.0000 C   0  0  0  0  0  0  0  0  0  0  0  0
   12.9681   -6.6299    0.0000 C   0  0  0  0  0  0  0  0  0  0  0  0
   12.2537   -7.0424    0.0000 C   0  0  0  0  0  0  0  0  0  0  0  0
   11.5392   -6.6299    0.0000 O   0  0  0  0  0  0  0  0  0  0  0  0
   10.8247   -7.0424    0.0000 C   0  0  0  0  0  0  0  0  0  0  0  0
   10.1103   -6.6299    0.0000 C   0  0  0  0  0  0  0  0  0  0  0  0
   10.8247   -7.8674    0.0000 O   0  0  0  0  0  0  0  0  0  0  0  0
    9.3958   -7.0424    0.0000 C   0  0  1  0  0  0  0  0  0  0  0  0
    8.6813   -6.6299    0.0000 C   0  0  0  0  0  0  0  0  0  0  0  0
    7.9668   -7.0424    0.0000 C   0  0  0  0  0  0  0  0  0  0  0  0
    7.2524   -6.6299    0.0000 C   0  0  0  0  0  0  0  0  0  0  0  0
    7.9668   -7.8674    0.0000 O   0  0  0  0  0  0  0  0  0  0  0  0
    9.9791   -7.6258    0.0000 C   0  0  0  0  0  0  0  0  0  0  0  0
   18.6767   -8.2747    0.0000 O   0  0  0  0  0  0  0  0  0  0  0  0
   17.9676   -7.0296    0.0000 C   0  0  2  0  0  0  0  0  0  0  0  0
   18.6821   -6.6171    0.0000 C   0  0  2  0  0  0  0  0  0  0  0  0
   18.6821   -5.7921    0.0000 C   0  0  1  0  0  0  0  0  0  0  0  0
   17.9676   -5.3796    0.0000 C   0  0  2  0  0  0  0  0  0  0  0  0
   17.2531   -5.7921    0.0000 C   0  0  1  0  0  0  0  0  0  0  0  0
   17.2531   -6.6171    0.0000 O   0  0  0  0  0  0  0  0  0  0  0  0
   17.9676   -7.8546    0.0000 C   0  0  0  0  0  0  0  0  0  0  0  0
   19.3965   -5.3796    0.0000 O   0  0  0  0  0  0  0  0  0  0  0  0
   19.3965   -7.0296    0.0000 O   0  0  0  0  0  0  0  0  0  0  0  0
   17.9676   -4.5546    0.0000 O   0  0  0  0  0  0  0  0  0  0  0  0
    9.3958   -7.8674    0.0000 O   0  0  0  0  0  0  0  0  0  0  0  0
  1  2  2  0  0  0  0
  2  3  1  0  0  0  0
  3  4  2  0  0  0  0
  4  5  1  0  0  0  0
  5  6  2  0  0  0  0
  6  1  1  0  0  0  0
  2  7  1  0  0  0  0
  5  8  1  0  0  0  0
  8  9  2  0  0  0  0
  9 10  1  0  0  0  0
 10 11  2  0  0  0  0
 10 12  1  0  0  0  0
 13 14  1  0  0  0  0
 14 15  1  0  0  0  0
 15 16  1  0  0  0  0
 16 17  1  0  0  0  0
 17 18  1  0  0  0  0
 18 13  1  0  0  0  0
 13 19  1  1  0  0  0
 15 20  1  1  0  0  0
 14 21  1  6  0  0  0
 16 22  1  6  0  0  0
 19 12  1  0  0  0  0
 23 24  2  0  0  0  0
 24 25  1  0  0  0  0
 25 26  2  0  0  0  0
 26 27  1  0  0  0  0
 27 28  2  0  0  0  0
 28 23  1  0  0  0  0
 23 29  1  0  0  0  0
 29 30  1  0  0  0  0
 24 31  1  0  0  0  0
 25 32  1  0  0  0  0
 32 33  1  0  0  0  0
 27 34  1  0  0  0  0
 34 35  2  0  0  0  0
 35 36  1  0  0  0  0
 36 37  1  0  0  0  0
 37 38  1  0  0  0  0
 38 39  1  0  0  0  0
 38 40  2  0  0  0  0
 39 41  1  0  0  0  0
 41 42  1  0  0  0  0
 42 43  1  0  0  0  0
 43 44  1  0  0  0  0
 43 45  2  0  0  0  0
 41 46  1  6  0  0  0
 48 49  1  0  0  0  0
 49 50  1  0  0  0  0
 50 51  1  0  0  0  0
 51 52  1  0  0  0  0
 52 53  1  0  0  0  0
 53 48  1  0  0  0  0
 48 54  1  1  0  0  0
 50 55  1  1  0  0  0
 49 56  1  6  0  0  0
 51 57  1  6  0  0  0
 54 47  1  0  0  0  0
 52 31  1  1  0  0  0
 41 58  1  0  0  0  0
 17 58  1  1  0  0  0
M  END
>  <cdx:fragmentId>
424

$$$$
