99811.cdx
  Mrv1902 05222410262D          

 49 55  0  0  0  0            999 V2000
    1.6824   -9.8038    0.0000 C   0  0  1  0  0  0  0  0  0  0  0  0
    1.6824  -10.6288    0.0000 C   0  0  1  0  0  0  0  0  0  0  0  0
    2.3969  -11.0412    0.0000 C   0  0  2  0  0  0  0  0  0  0  0  0
    3.1114  -10.6288    0.0000 O   0  0  0  0  0  0  0  0  0  0  0  0
    3.1114   -9.8038    0.0000 C   0  0  2  0  0  0  0  0  0  0  0  0
    2.3969   -9.3913    0.0000 C   0  0  0  0  0  0  0  0  0  0  0  0
    3.8258  -11.0412    0.0000 C   0  0  0  0  0  0  0  0  0  0  0  0
    4.5403  -10.6288    0.0000 C   0  0  1  0  0  0  0  0  0  0  0  0
    4.5403   -9.8038    0.0000 C   0  0  2  0  0  0  0  0  0  0  0  0
    3.8258   -9.3913    0.0000 O   0  0  0  0  0  0  0  0  0  0  0  0
    5.2548  -11.0412    0.0000 O   0  0  0  0  0  0  0  0  0  0  0  0
    5.9693  -10.6288    0.0000 C   0  0  1  0  0  0  0  0  0  0  0  0
    5.9693   -9.8038    0.0000 C   0  0  0  0  0  0  0  0  0  0  0  0
    5.2548   -9.3913    0.0000 C   0  0  1  0  0  0  0  0  0  0  0  0
    6.6837  -11.0412    0.0000 O   0  0  0  0  0  0  0  0  0  0  0  0
    7.3982  -10.6288    0.0000 C   0  0  1  0  0  0  0  0  0  0  0  0
    7.3982   -9.8038    0.0000 C   0  0  0  0  0  0  0  0  0  0  0  0
    8.1127  -11.0412    0.0000 C   0  0  0  0  0  0  0  0  0  0  0  0
    8.8271  -10.6288    0.0000 C   0  0  2  0  0  0  0  0  0  0  0  0
    8.8271   -9.8038    0.0000 C   0  0  2  0  0  0  0  0  0  0  0  0
    8.1127   -9.3913    0.0000 C   0  0  0  0  0  0  0  0  0  0  0  0
    9.5416  -11.0412    0.0000 C   0  0  0  0  0  0  0  0  0  0  0  0
   10.2561  -10.6288    0.0000 C   0  0  0  0  0  0  0  0  0  0  0  0
   10.2561   -9.8038    0.0000 C   0  0  2  0  0  0  0  0  0  0  0  0
    9.5416   -9.3913    0.0000 C   0  0  2  0  0  0  0  0  0  0  0  0
   10.9706   -9.3913    0.0000 C   0  0  2  0  0  0  0  0  0  0  0  0
   10.9706   -8.5663    0.0000 C   0  0  2  0  0  0  0  0  0  0  0  0
   10.2561   -8.1538    0.0000 C   0  0  1  0  0  0  0  0  0  0  0  0
    9.5416   -8.5663    0.0000 C   0  0  0  0  0  0  0  0  0  0  0  0
   11.7552   -9.6462    0.0000 C   0  0  0  0  0  0  0  0  0  0  0  0
   12.2401   -8.9788    0.0000 C   0  0  0  0  0  0  0  0  0  0  0  0
   11.7552   -8.3113    0.0000 C   0  0  2  0  0  0  0  0  0  0  0  0
   12.0101   -7.5267    0.0000 C   0  0  0  0  0  0  0  0  0  0  0  0
   12.7947   -7.2718    0.0000 C   0  0  0  0  0  0  0  0  0  0  0  0
   12.7947   -6.4468    0.0000 C   0  0  0  0  0  0  0  0  0  0  0  0
   12.0101   -6.1918    0.0000 O   0  0  0  0  0  0  0  0  0  0  0  0
   11.5252   -6.8593    0.0000 C   0  0  0  0  0  0  0  0  0  0  0  0
   13.4622   -5.9618    0.0000 O   0  0  0  0  0  0  0  0  0  0  0  0
    0.9680  -11.0412    0.0000 O   0  0  0  0  0  0  0  0  0  0  0  0
    8.8271   -8.9788    0.0000 C   0  0  0  0  0  0  0  0  0  0  0  0
    8.8271  -11.4537    0.0000 H   0  0  0  0  0  0  0  0  0  0  0  0
   10.2561   -8.9788    0.0000 H   0  0  0  0  0  0  0  0  0  0  0  0
   10.2561   -7.3287    0.0000 O   0  0  0  0  0  0  0  0  0  0  0  0
   11.0568   -7.7458    0.0000 C   0  0  0  0  0  0  0  0  0  0  0  0
   11.0568  -10.2117    0.0000 O   0  0  0  0  0  0  0  0  0  0  0  0
    0.9680   -9.3913    0.0000 O   0  0  0  0  0  0  0  0  0  0  0  0
    2.3969  -11.8662    0.0000 C   0  0  0  0  0  0  0  0  0  0  0  0
    5.2548   -8.5663    0.0000 O   0  0  0  0  0  0  0  0  0  0  0  0
    9.5416  -10.2163    0.0000 H   0  0  0  0  0  0  0  0  0  0  0  0
  1  2  1  0  0  0  0
  2  3  1  0  0  0  0
  3  4  1  0  0  0  0
  4  5  1  0  0  0  0
  5  6  1  0  0  0  0
  6  1  1  0  0  0  0
  8  7  1  1  0  0  0
  8  9  1  0  0  0  0
  9 10  1  6  0  0  0
  5 10  1  6  0  0  0
  8 11  1  0  0  0  0
 11 12  1  0  0  0  0
 12 13  1  0  0  0  0
 13 14  1  0  0  0  0
 14  9  1  0  0  0  0
 12 15  1  1  0  0  0
 16 15  1  1  0  0  0
 16 17  1  0  0  0  0
 16 18  1  0  0  0  0
 18 19  1  0  0  0  0
 19 20  1  0  0  0  0
 20 21  1  0  0  0  0
 21 17  1  0  0  0  0
 19 22  1  0  0  0  0
 22 23  1  0  0  0  0
 23 24  1  0  0  0  0
 24 25  1  0  0  0  0
 25 20  1  0  0  0  0
 24 26  1  0  0  0  0
 26 27  1  0  0  0  0
 27 28  1  0  0  0  0
 28 29  1  0  0  0  0
 29 25  1  0  0  0  0
 26 30  1  0  0  0  0
 30 31  1  0  0  0  0
 31 32  1  0  0  0  0
 32 27  1  0  0  0  0
 32 33  1  1  0  0  0
 33 34  2  0  0  0  0
 34 35  1  0  0  0  0
 35 36  1  0  0  0  0
 36 37  1  0  0  0  0
 37 33  1  0  0  0  0
 35 38  2  0  0  0  0
  2 39  1  1  0  0  0
 20 40  1  1  0  0  0
 19 41  1  1  0  0  0
 24 42  1  1  0  0  0
 28 43  1  1  0  0  0
 27 44  1  1  0  0  0
 26 45  1  1  0  0  0
  1 46  1  6  0  0  0
  3 47  1  6  0  0  0
 14 48  1  6  0  0  0
 25 49  1  6  0  0  0
M  END
>  <cdx:fragmentId>
5

$$$$
