99823.cdx
  Mrv1902 05222410192D          

 27 28  0  0  0  0            999 V2000
    6.1963   -7.5335    0.0000 C   0  0  0  0  0  0  0  0  0  0  0  0
    4.7545   -6.7087    0.0000 O   0  0  0  0  0  0  0  0  0  0  0  0
    4.7645   -7.5336    0.0000 C   0  0  2  0  0  0  0  0  0  0  0  0
    4.0550   -7.9547    0.0000 C   0  0  1  0  0  0  0  0  0  0  0  0
    3.3356   -7.5508    0.0000 C   0  0  2  0  0  0  0  0  0  0  0  0
    3.3257   -6.7259    0.0000 C   0  0  2  0  0  0  0  0  0  0  0  0
    4.0351   -6.3048    0.0000 C   0  0  0  0  0  0  0  0  0  0  0  0
    4.0650   -8.7796    0.0000 O   0  0  0  0  0  0  0  0  0  0  0  0
    2.6262   -7.9719    0.0000 O   0  0  0  0  0  0  0  0  0  0  0  0
    2.6063   -6.3220    0.0000 O   0  0  0  0  0  0  0  0  0  0  0  0
    5.4839   -7.9375    0.0000 O   0  0  0  0  0  0  0  0  0  0  0  0
    6.9118   -7.9443    0.0000 C   0  0  2  0  0  0  0  0  0  0  0  0
    6.9139   -8.7692    0.0000 C   0  0  2  0  0  0  0  0  0  0  0  0
    7.6294   -9.1800    0.0000 C   0  0  1  0  0  0  0  0  0  0  0  0
    8.3428   -8.7657    0.0000 C   0  0  2  0  0  0  0  0  0  0  0  0
    8.3408   -7.9407    0.0000 C   0  0  1  0  0  0  0  0  0  0  0  0
    7.6252   -7.5300    0.0000 O   0  0  0  0  0  0  0  0  0  0  0  0
    7.6314  -10.0050    0.0000 O   0  0  0  0  0  0  0  0  0  0  0  0
    9.0542   -7.5264    0.0000 O   0  0  0  0  0  0  0  0  0  0  0  0
    6.2004   -9.1835    0.0000 O   0  0  0  0  0  0  0  0  0  0  0  0
    9.0583   -9.1764    0.0000 O   0  0  0  0  0  0  0  0  0  0  0  0
    9.7687   -7.9389    0.0000 C   0  0  0  0  0  0  0  0  0  0  0  0
   10.4831   -7.5264    0.0000 C   0  0  0  0  0  0  0  0  0  0  0  0
   11.1976   -7.9389    0.0000 C   0  0  0  0  0  0  0  0  0  0  0  0
   11.9121   -7.5264    0.0000 C   0  0  0  0  0  0  0  0  0  0  0  0
   12.6265   -7.9389    0.0000 C   0  0  0  0  0  0  0  0  0  0  0  0
   13.3410   -7.5264    0.0000 C   0  0  0  0  0  0  0  0  0  0  0  0
  1 11  1  0  0  0  0
  2  3  1  0  0  0  0
  3  4  1  0  0  0  0
  4  5  1  0  0  0  0
  5  6  1  0  0  0  0
  6  7  1  0  0  0  0
  2  7  1  0  0  0  0
  4  8  1  6  0  0  0
  5  9  1  1  0  0  0
 12 13  1  0  0  0  0
 13 14  1  0  0  0  0
 14 15  1  0  0  0  0
 15 16  1  0  0  0  0
 16 17  1  0  0  0  0
 17 12  1  0  0  0  0
  6 10  1  1  0  0  0
 12  1  1  1  0  0  0
 14 18  1  1  0  0  0
 16 19  1  1  0  0  0
 13 20  1  6  0  0  0
 15 21  1  6  0  0  0
  3 11  1  1  0  0  0
 19 22  1  0  0  0  0
 22 23  1  0  0  0  0
 23 24  1  0  0  0  0
 24 25  1  0  0  0  0
 25 26  1  0  0  0  0
 26 27  1  0  0  0  0
M  END
>  <cdx:fragmentId>
5

$$$$
