99827.cdx
  Mrv1902 05222410192D          

 38 42  0  0  0  0            999 V2000
    4.6331   -9.3733    0.0000 C   0  0  2  0  0  0  0  0  0  0  0  0
    4.6331  -10.1983    0.0000 C   0  0  0  0  0  0  0  0  0  0  0  0
    5.3475  -10.6108    0.0000 C   0  0  1  0  0  0  0  0  0  0  0  0
    6.0620  -10.1983    0.0000 C   0  0  0  0  0  0  0  0  0  0  0  0
    6.0620   -9.3733    0.0000 C   0  0  1  0  0  0  0  0  0  0  0  0
    5.3475   -8.9608    0.0000 C   0  0  0  0  0  0  0  0  0  0  0  0
    6.7764  -10.6108    0.0000 C   0  0  0  0  0  0  0  0  0  0  0  0
    7.4908  -10.1983    0.0000 C   0  0  0  0  0  0  0  0  0  0  0  0
    7.4908   -9.3733    0.0000 C   0  0  2  0  0  0  0  0  0  0  0  0
    6.7764   -8.9608    0.0000 C   0  0  1  0  0  0  0  0  0  0  0  0
    8.2053   -8.9608    0.0000 C   0  0  1  0  0  0  0  0  0  0  0  0
    8.2053   -8.1358    0.0000 C   0  0  2  0  0  0  0  0  0  0  0  0
    7.4908   -7.7233    0.0000 C   0  0  0  0  0  0  0  0  0  0  0  0
    6.7764   -8.1358    0.0000 C   0  0  0  0  0  0  0  0  0  0  0  0
    8.9899   -9.2158    0.0000 C   0  0  0  0  0  0  0  0  0  0  0  0
    9.4749   -8.5483    0.0000 C   0  0  2  0  0  0  0  0  0  0  0  0
    8.9899   -7.8809    0.0000 C   0  0  0  0  0  0  0  0  0  0  0  0
    9.2449   -7.0963    0.0000 C   0  0  2  0  0  0  0  0  0  0  0  0
   10.0418   -6.8828    0.0000 O   0  0  0  0  0  0  0  0  0  0  0  0
   10.0849   -6.0589    0.0000 C   0  0  0  0  0  0  0  0  0  0  0  0
    9.3147   -5.7632    0.0000 C   0  0  0  0  0  0  0  0  0  0  0  0
    8.7955   -6.4044    0.0000 C   0  0  0  0  0  0  0  0  0  0  0  0
    3.9186  -10.6108    0.0000 O   0  0  0  0  0  0  0  0  0  0  0  0
    6.0620   -7.7233    0.0000 O   0  0  0  0  0  0  0  0  0  0  0  0
    3.9186   -8.9608    0.0000 O   0  0  0  0  0  0  0  0  0  0  0  0
    4.9350  -11.3253    0.0000 C   0  0  0  0  0  0  0  0  0  0  0  0
    6.7764   -9.7858    0.0000 C   0  0  0  0  0  0  0  0  0  0  0  0
    7.4908   -8.5483    0.0000 H   0  0  0  0  0  0  0  0  0  0  0  0
    8.2915   -7.3154    0.0000 C   0  0  0  0  0  0  0  0  0  0  0  0
    8.4480   -6.8828    0.0000 C   0  0  0  0  0  0  0  0  0  0  0  0
    6.0620   -8.5483    0.0000 H   0  0  0  0  0  0  0  0  0  0  0  0
    5.9309  -11.1942    0.0000 C   0  0  0  0  0  0  0  0  0  0  0  0
    7.9717   -6.3612    0.0000 O   0  0  0  0  0  0  0  0  0  0  0  0
   10.7768   -5.6096    0.0000 C   0  0  0  0  0  0  0  0  0  0  0  0
   11.5119   -5.9841    0.0000 C   0  0  0  0  0  0  0  0  0  0  0  0
   10.7337   -4.7857    0.0000 C   0  0  0  0  0  0  0  0  0  0  0  0
   10.2999   -8.5483    0.0000 O   0  0  0  0  0  0  0  0  0  0  0  0
    8.2915   -9.7813    0.0000 C   0  0  0  0  0  0  0  0  0  0  0  0
  1  2  1  0  0  0  0
  2  3  1  0  0  0  0
  3  4  1  0  0  0  0
  4  5  1  0  0  0  0
  5  6  1  0  0  0  0
  6  1  1  0  0  0  0
  4  7  2  0  0  0  0
  7  8  1  0  0  0  0
  8  9  1  0  0  0  0
  9 10  1  0  0  0  0
 10  5  1  0  0  0  0
  9 11  1  0  0  0  0
 11 12  1  0  0  0  0
 12 13  1  0  0  0  0
 13 14  1  0  0  0  0
 14 10  1  0  0  0  0
 11 15  1  0  0  0  0
 15 16  1  0  0  0  0
 16 17  1  0  0  0  0
 17 12  1  0  0  0  0
 17 18  1  0  0  0  0
 18 19  1  0  0  0  0
 19 20  1  0  0  0  0
 20 21  2  0  0  0  0
 21 22  1  0  0  0  0
 22 18  1  0  0  0  0
  2 23  2  0  0  0  0
 14 24  2  0  0  0  0
  1 25  1  1  0  0  0
  3 26  1  1  0  0  0
 10 27  1  1  0  0  0
  9 28  1  1  0  0  0
 12 29  1  1  0  0  0
 18 30  1  6  0  0  0
  5 31  1  6  0  0  0
  3 32  1  6  0  0  0
 22 33  2  0  0  0  0
 20 34  1  0  0  0  0
 34 35  1  0  0  0  0
 34 36  1  0  0  0  0
 16 37  1  6  0  0  0
 11 38  1  6  0  0  0
M  END
>  <cdx:fragmentId>
1

$$$$
