99825.cdx
  Mrv1902 05222410182D          

 27 28  0  0  0  0            999 V2000
    5.1779   -8.5840    0.0000 O   0  0  0  0  0  0  0  0  0  0  0  0
    6.6055   -8.6152    0.0000 C   0  0  2  0  0  0  0  0  0  0  0  0
    6.5935   -9.4401    0.0000 C   0  0  2  0  0  0  0  0  0  0  0  0
    7.3019   -9.8630    0.0000 C   0  0  1  0  0  0  0  0  0  0  0  0
    8.0223   -9.4609    0.0000 C   0  0  2  0  0  0  0  0  0  0  0  0
    8.0343   -8.6360    0.0000 C   0  0  1  0  0  0  0  0  0  0  0  0
    7.3259   -8.2131    0.0000 O   0  0  0  0  0  0  0  0  0  0  0  0
    3.7492   -7.0015    0.0000 C   0  0  2  0  0  0  0  0  0  0  0  0
    7.2899  -10.6879    0.0000 O   0  0  0  0  0  0  0  0  0  0  0  0
    8.7547   -8.2339    0.0000 O   0  0  0  0  0  0  0  0  0  0  0  0
    5.8731   -9.8422    0.0000 O   0  0  0  0  0  0  0  0  0  0  0  0
    8.7307   -9.8838    0.0000 O   0  0  0  0  0  0  0  0  0  0  0  0
    3.2544   -7.6616    0.0000 C   0  0  2  0  0  0  0  0  0  0  0  0
    3.7294   -8.3362    0.0000 C   0  0  1  0  0  0  0  0  0  0  0  0
    4.5177   -8.0929    0.0000 C   0  0  1  0  0  0  0  0  0  0  0  0
    4.5299   -7.2680    0.0000 O   0  0  0  0  0  0  0  0  0  0  0  0
    3.5059   -6.2131    0.0000 C   0  0  0  0  0  0  0  0  0  0  0  0
    3.4628   -9.1169    0.0000 O   0  0  0  0  0  0  0  0  0  0  0  0
    2.4295   -7.6494    0.0000 O   0  0  0  0  0  0  0  0  0  0  0  0
    2.7016   -6.0296    0.0000 O   0  0  0  0  0  0  0  0  0  0  0  0
    5.8971   -8.1923    0.0000 C   0  0  0  0  0  0  0  0  0  0  0  0
    9.4631   -8.6568    0.0000 C   0  0  0  0  0  0  0  0  0  0  0  0
   10.1835   -8.2548    0.0000 C   0  0  0  0  0  0  0  0  0  0  0  0
   10.8919   -8.6776    0.0000 C   0  0  0  0  0  0  0  0  0  0  0  0
   11.6123   -8.2756    0.0000 C   0  0  0  0  0  0  0  0  0  0  0  0
   12.3207   -8.6984    0.0000 C   0  0  0  0  0  0  0  0  0  0  0  0
   13.0411   -8.2964    0.0000 C   0  0  0  0  0  0  0  0  0  0  0  0
  2  3  1  0  0  0  0
  3  4  1  0  0  0  0
  4  5  1  0  0  0  0
  5  6  1  0  0  0  0
  6  7  1  0  0  0  0
  7  2  1  0  0  0  0
  2 21  1  1  0  0  0
  4  9  1  1  0  0  0
  6 10  1  1  0  0  0
  3 11  1  6  0  0  0
  5 12  1  6  0  0  0
  8 13  1  0  0  0  0
 13 14  1  0  0  0  0
 14 15  1  0  0  0  0
 15 16  1  0  0  0  0
 16  8  1  0  0  0  0
  8 17  1  1  0  0  0
 14 18  1  1  0  0  0
 13 19  1  6  0  0  0
 17 20  1  0  0  0  0
 21  1  1  0  0  0  0
 15  1  1  1  0  0  0
 10 22  1  0  0  0  0
 22 23  1  0  0  0  0
 23 24  1  0  0  0  0
 24 25  1  0  0  0  0
 25 26  1  0  0  0  0
 26 27  1  0  0  0  0
M  END
>  <cdx:fragmentId>
452

$$$$
