99824.cdx
  Mrv1902 05222410182D          

  9  8  0  0  0  0            999 V2000
    6.1428   -3.1221    0.0000 C   0  0  0  0  0  0  0  0  0  0  0  0
    5.4284   -3.5346    0.0000 C   0  0  0  0  0  0  0  0  0  0  0  0
    4.7139   -3.1221    0.0000 C   0  0  0  0  0  0  0  0  0  0  0  0
    3.9994   -3.5346    0.0000 C   0  0  0  0  0  0  0  0  0  0  0  0
    3.2849   -3.1221    0.0000 C   0  0  0  0  0  0  0  0  0  0  0  0
    2.5705   -3.5346    0.0000 C   0  0  0  0  0  0  0  0  0  0  0  0
    6.1428   -2.2971    0.0000 O   0  0  0  0  0  0  0  0  0  0  0  0
    6.8573   -3.5346    0.0000 O   0  0  0  0  0  0  0  0  0  0  0  0
    5.4284   -4.3596    0.0000 O   0  0  0  0  0  0  0  0  0  0  0  0
  1  2  1  0  0  0  0
  2  3  1  0  0  0  0
  3  4  1  0  0  0  0
  4  5  1  0  0  0  0
  5  6  1  0  0  0  0
  1  7  2  0  0  0  0
  1  8  1  0  0  0  0
  2  9  1  0  0  0  0
M  END
>  <cdx:groupId>
28

>  <cdx:fragmentId>
5

$$$$
