99831.cdx
  Mrv1902 05222410182D          

 21 20  0  0  0  0            999 V2000
    9.5221   -7.3785    0.0000 C   0  0  0  0  0  0  0  0  0  0  0  0
    9.5221   -8.2035    0.0000 C   0  0  0  0  0  0  0  0  0  0  0  0
   10.2366   -8.6160    0.0000 C   0  0  0  0  0  0  0  0  0  0  0  0
   10.2366   -9.4410    0.0000 C   0  0  0  0  0  0  0  0  0  0  0  0
   10.9510   -9.8535    0.0000 C   0  0  0  0  0  0  0  0  0  0  0  0
   10.9510  -10.6785    0.0000 C   0  0  0  0  0  0  0  0  0  0  0  0
   11.6655  -11.0910    0.0000 C   0  0  0  0  0  0  0  0  0  0  0  0
   11.6655  -11.9160    0.0000 C   0  0  0  0  0  0  0  0  0  0  0  0
    1.6629   -6.9660    0.0000 O   0  0  0  0  0  0  0  0  0  0  0  0
    2.3774   -8.2035    0.0000 O   0  0  0  0  0  0  0  0  0  0  0  0
   12.3800  -12.3285    0.0000 C   0  0  0  0  0  0  0  0  0  0  0  0
    8.8076   -6.9660    0.0000 C   0  0  0  0  0  0  0  0  0  0  0  0
    8.0932   -7.3785    0.0000 C   0  0  0  0  0  0  0  0  0  0  0  0
    7.3787   -6.9660    0.0000 C   0  0  0  0  0  0  0  0  0  0  0  0
    6.6642   -7.3785    0.0000 C   0  0  0  0  0  0  0  0  0  0  0  0
    5.9497   -6.9660    0.0000 C   0  0  0  0  0  0  0  0  0  0  0  0
    5.2353   -7.3785    0.0000 C   0  0  0  0  0  0  0  0  0  0  0  0
    4.5208   -6.9660    0.0000 C   0  0  0  0  0  0  0  0  0  0  0  0
    3.8063   -7.3785    0.0000 C   0  0  0  0  0  0  0  0  0  0  0  0
    3.0919   -6.9660    0.0000 C   0  0  0  0  0  0  0  0  0  0  0  0
    2.3774   -7.3785    0.0000 C   0  0  0  0  0  0  0  0  0  0  0  0
 21  9  1  0  0  0  0
 21 10  2  0  0  0  0
 12  1  2  0  0  0  0
 13 12  1  0  0  0  0
 14 13  1  0  0  0  0
 15 14  1  0  0  0  0
 16 15  1  0  0  0  0
 17 16  1  0  0  0  0
 18 17  1  0  0  0  0
 19 18  1  0  0  0  0
 20 19  1  0  0  0  0
 21 20  1  0  0  0  0
  1  2  1  0  0  0  0
  2  3  1  0  0  0  0
  3  4  1  0  0  0  0
  4  5  1  0  0  0  0
  5  6  1  0  0  0  0
  6  7  1  0  0  0  0
  7  8  1  0  0  0  0
  8 11  1  0  0  0  0
M  END
>  <cdx:fragmentId>
5

$$$$
