99839.cdx
  Mrv1902 05222410262D          

 16 17  0  0  0  0            999 V2000
    8.2746   -9.0787    0.0000 C   0  0  0  0  0  0  0  0  0  0  0  0
    8.0197   -9.8633    0.0000 C   0  0  0  0  0  0  0  0  0  0  0  0
    7.1947   -9.8633    0.0000 C   0  0  0  0  0  0  0  0  0  0  0  0
    6.9397   -9.0787    0.0000 C   0  0  0  0  0  0  0  0  0  0  0  0
    7.6072   -8.5938    0.0000 S   0  0  0  0  0  0  0  0  0  0  0  0
    9.0592   -8.8238    0.0000 C   0  0  0  0  0  0  0  0  0  0  0  0
    9.3141   -8.0392    0.0000 C   0  0  0  0  0  0  0  0  0  0  0  0
   10.1391   -8.0392    0.0000 C   0  0  0  0  0  0  0  0  0  0  0  0
   10.3941   -8.8238    0.0000 C   0  0  0  0  0  0  0  0  0  0  0  0
    9.7266   -9.3087    0.0000 S   0  0  0  0  0  0  0  0  0  0  0  0
    6.2345   -8.6733    0.0000 C   0  0  0  0  0  0  0  0  0  0  0  0
    5.5202   -8.2607    0.0000 C   0  0  0  0  0  0  0  0  0  0  0  0
    4.8058   -7.8480    0.0000 C   0  0  0  0  0  0  0  0  0  0  0  0
    4.0912   -8.2604    0.0000 C   0  0  0  0  0  0  0  0  0  0  0  0
    3.3768   -7.8477    0.0000 O   0  0  0  0  0  0  0  0  0  0  0  0
    4.8059   -7.0230    0.0000 O   0  0  0  0  0  0  0  0  0  0  0  0
  1  2  2  0  0  0  0
  2  3  1  0  0  0  0
  3  4  2  0  0  0  0
  4  5  1  0  0  0  0
  1  5  1  0  0  0  0
  6  7  2  0  0  0  0
  7  8  1  0  0  0  0
  8  9  2  0  0  0  0
  9 10  1  0  0  0  0
  6 10  1  0  0  0  0
  1  6  1  0  0  0  0
 11 12  3  0  0  0  0
 12 13  1  0  0  0  0
 13 14  1  0  0  0  0
 14 15  1  0  0  0  0
 13 16  1  0  0  0  0
 11  4  1  0  0  0  0
M  END
>  <cdx:fragmentId>
15

$$$$
