99832.cdx
  Mrv1902 05222410192D          

 22 21  0  0  0  0            999 V2000
    3.0804  -10.3323    0.0000 C   0  0  0  0  0  0  0  0  0  0  0  0
    3.7949   -9.9198    0.0000 C   0  0  0  0  0  0  0  0  0  0  0  0
    4.5094  -10.3323    0.0000 C   0  0  0  0  0  0  0  0  0  0  0  0
    5.2238   -9.9198    0.0000 C   0  0  0  0  0  0  0  0  0  0  0  0
    5.9383  -10.3323    0.0000 C   0  0  0  0  0  0  0  0  0  0  0  0
    6.6528   -9.9198    0.0000 C   0  0  0  0  0  0  0  0  0  0  0  0
    7.3672  -10.3323    0.0000 C   0  0  0  0  0  0  0  0  0  0  0  0
    8.0817   -9.9198    0.0000 C   0  0  0  0  0  0  0  0  0  0  0  0
    8.7962  -10.3323    0.0000 C   0  0  0  0  0  0  0  0  0  0  0  0
    9.5107   -9.9198    0.0000 C   0  0  0  0  0  0  0  0  0  0  0  0
   10.2251  -10.3323    0.0000 C   0  0  0  0  0  0  0  0  0  0  0  0
   10.9381   -9.9171    0.0000 C   0  0  0  0  0  0  0  0  0  0  0  0
   10.9370   -9.0921    0.0000 C   0  0  0  0  0  0  0  0  0  0  0  0
   11.6509   -8.6787    0.0000 C   0  0  0  0  0  0  0  0  0  0  0  0
   11.6482   -7.8537    0.0000 C   0  0  0  0  0  0  0  0  0  0  0  0
   10.9329   -7.4426    0.0000 C   0  0  0  0  0  0  0  0  0  0  0  0
   10.9313   -6.6176    0.0000 C   0  0  0  0  0  0  0  0  0  0  0  0
   10.2161   -6.2065    0.0000 C   0  0  0  0  0  0  0  0  0  0  0  0
   10.2145   -5.3815    0.0000 C   0  0  0  0  0  0  0  0  0  0  0  0
    9.4992   -4.9703    0.0000 C   0  0  0  0  0  0  0  0  0  0  0  0
    3.0804  -11.1573    0.0000 O   0  0  0  0  0  0  0  0  0  0  0  0
    2.3659   -9.9198    0.0000 O   0  0  0  0  0  0  0  0  0  0  0  0
  1  2  1  0  0  0  0
  2  3  1  0  0  0  0
  3  4  1  0  0  0  0
  4  5  1  0  0  0  0
  5  6  1  0  0  0  0
  6  7  1  0  0  0  0
  7  8  1  0  0  0  0
  8  9  1  0  0  0  0
  9 10  1  0  0  0  0
 10 11  1  0  0  0  0
 11 12  2  0  0  0  0
 12 13  1  0  0  0  0
 13 14  1  0  0  0  0
 14 15  2  0  0  0  0
 15 16  1  0  0  0  0
 16 17  1  0  0  0  0
 17 18  1  0  0  0  0
 18 19  1  0  0  0  0
 19 20  1  0  0  0  0
  1 21  2  0  0  0  0
  1 22  1  0  0  0  0
M  END
>  <cdx:fragmentId>
5

$$$$
