99835.cdx
  Mrv1902 05222410202D          

 63 62  0  0  0  0            999 V2000
   14.3914   -8.8925    0.0000 C   0  0  0  0  0  0  0  0  0  0  0  0
   12.2462   -7.6833    0.0000 O   0  0  0  0  0  0  0  0  0  0  0  0
   15.8087   -8.8855    0.0000 C   0  0  0  0  0  0  0  0  0  0  0  0
   16.5197   -8.4754    0.0000 C   0  0  0  0  0  0  0  0  0  0  0  0
   17.2304   -8.8861    0.0000 C   0  0  0  0  0  0  0  0  0  0  0  0
   17.9415   -8.4760    0.0000 C   0  0  0  0  0  0  0  0  0  0  0  0
   18.6521   -8.8867    0.0000 C   0  0  0  0  0  0  0  0  0  0  0  0
   19.3632   -8.4766    0.0000 C   0  0  0  0  0  0  0  0  0  0  0  0
   20.0739   -8.8873    0.0000 C   0  0  0  0  0  0  0  0  0  0  0  0
   20.7849   -8.4772    0.0000 C   0  0  0  0  0  0  0  0  0  0  0  0
   21.4956   -8.8879    0.0000 C   0  0  0  0  0  0  0  0  0  0  0  0
   15.8083   -9.7063    0.0000 O   0  0  0  0  0  0  0  0  0  0  0  0
   15.0980   -8.4747    0.0000 O   0  0  0  0  0  0  0  0  0  0  0  0
   13.6933  -10.1310    0.0000 O   0  0  0  0  0  0  0  0  0  0  0  0
    6.5680   -8.5629    0.0000 C   0  0  0  0  0  0  0  0  0  0  0  0
    7.2831   -8.9659    0.0000 C   0  0  0  0  0  0  0  0  0  0  0  0
    7.9896   -8.5482    0.0000 C   0  0  0  0  0  0  0  0  0  0  0  0
    8.7047   -8.9512    0.0000 C   0  0  0  0  0  0  0  0  0  0  0  0
    9.4113   -8.5335    0.0000 C   0  0  0  0  0  0  0  0  0  0  0  0
   10.1264   -8.9365    0.0000 C   0  0  0  0  0  0  0  0  0  0  0  0
   10.8330   -8.5188    0.0000 C   0  0  0  0  0  0  0  0  0  0  0  0
   11.5480   -8.9219    0.0000 C   0  0  0  0  0  0  0  0  0  0  0  0
   12.2546   -8.5041    0.0000 C   0  0  0  0  0  0  0  0  0  0  0  0
   12.9697   -8.9072    0.0000 O   0  0  0  0  0  0  0  0  0  0  0  0
   13.6763   -8.4894    0.0000 C   0  0  0  0  0  0  0  0  0  0  0  0
   14.4168  -11.3549    0.0000 O   0  0  0  0  0  0  0  0  0  0  0  0
   10.9093  -15.9060    0.0000 C   0  0  0  0  0  0  0  0  0  0  0  0
   10.9008  -15.0852    0.0000 C   0  0  0  0  0  0  0  0  0  0  0  0
   11.6074  -14.6674    0.0000 C   0  0  0  0  0  0  0  0  0  0  0  0
   11.5989  -13.8466    0.0000 C   0  0  0  0  0  0  0  0  0  0  0  0
   12.3055  -13.4289    0.0000 C   0  0  0  0  0  0  0  0  0  0  0  0
   12.2970  -12.6081    0.0000 C   0  0  0  0  0  0  0  0  0  0  0  0
   13.0036  -12.1904    0.0000 C   0  0  0  0  0  0  0  0  0  0  0  0
   12.9951  -11.3696    0.0000 C   0  0  0  0  0  0  0  0  0  0  0  0
   13.7017  -10.9518    0.0000 C   0  0  0  0  0  0  0  0  0  0  0  0
   14.3999   -9.7133    0.0000 C   0  0  0  0  0  0  0  0  0  0  0  0
   22.2103   -8.4757    0.0000 C   0  0  0  0  0  0  0  0  0  0  0  0
   22.2106   -7.6507    0.0000 C   0  0  0  0  0  0  0  0  0  0  0  0
   22.9253   -7.2385    0.0000 C   0  0  0  0  0  0  0  0  0  0  0  0
   22.9256   -6.4135    0.0000 C   0  0  0  0  0  0  0  0  0  0  0  0
    5.8578   -8.9827    0.0000 C   0  0  0  0  0  0  0  0  0  0  0  0
    5.8663   -9.8077    0.0000 C   0  0  0  0  0  0  0  0  0  0  0  0
    5.1562  -10.2275    0.0000 C   0  0  0  0  0  0  0  0  0  0  0  0
    5.1647  -11.0525    0.0000 C   0  0  0  0  0  0  0  0  0  0  0  0
    4.4545  -11.4723    0.0000 C   0  0  0  0  0  0  0  0  0  0  0  0
    4.4630  -12.2973    0.0000 C   0  0  0  0  0  0  0  0  0  0  0  0
    3.7529  -12.7172    0.0000 C   0  0  0  0  0  0  0  0  0  0  0  0
    3.7614  -13.5421    0.0000 C   0  0  0  0  0  0  0  0  0  0  0  0
    3.0512  -13.9620    0.0000 C   0  0  0  0  0  0  0  0  0  0  0  0
   10.1991  -16.3258    0.0000 C   0  0  0  0  0  0  0  0  0  0  0  0
    9.4804  -15.9207    0.0000 C   0  0  0  0  0  0  0  0  0  0  0  0
    8.7702  -16.3406    0.0000 C   0  0  0  0  0  0  0  0  0  0  0  0
    8.0515  -15.9355    0.0000 C   0  0  0  0  0  0  0  0  0  0  0  0
    8.0430  -15.1105    0.0000 C   0  0  0  0  0  0  0  0  0  0  0  0
    7.3243  -14.7054    0.0000 C   0  0  0  0  0  0  0  0  0  0  0  0
    7.3158  -13.8805    0.0000 C   0  0  0  0  0  0  0  0  0  0  0  0
    6.5971  -13.4754    0.0000 C   0  0  0  0  0  0  0  0  0  0  0  0
    5.8869  -13.8952    0.0000 C   0  0  0  0  0  0  0  0  0  0  0  0
   23.6403   -6.0014    0.0000 C   0  0  0  0  0  0  0  0  0  0  0  0
   23.6406   -5.1764    0.0000 C   0  0  0  0  0  0  0  0  0  0  0  0
   24.3553   -4.7642    0.0000 C   0  0  0  0  0  0  0  0  0  0  0  0
   24.3557   -3.9392    0.0000 C   0  0  0  0  0  0  0  0  0  0  0  0
   25.0703   -3.5270    0.0000 C   0  0  0  0  0  0  0  0  0  0  0  0
 36 14  1  0  0  0  0
 25 24  1  0  0  0  0
 24 23  1  0  0  0  0
 23  2  2  0  0  0  0
 16 15  1  0  0  0  0
 17 16  1  0  0  0  0
 18 17  1  0  0  0  0
 19 18  1  0  0  0  0
 20 19  1  0  0  0  0
 21 20  1  0  0  0  0
 22 21  1  0  0  0  0
 23 22  1  0  0  0  0
 35 14  1  0  0  0  0
 35 26  2  0  0  0  0
 28 27  1  0  0  0  0
 29 28  1  0  0  0  0
 30 29  1  0  0  0  0
 31 30  1  0  0  0  0
 32 31  1  0  0  0  0
 33 32  1  0  0  0  0
 34 33  1  0  0  0  0
 35 34  1  0  0  0  0
  1 36  1  0  0  0  0
  1 25  1  0  0  0  0
  3  4  1  0  0  0  0
  4  5  1  0  0  0  0
  5  6  1  0  0  0  0
  6  7  1  0  0  0  0
  7  8  1  0  0  0  0
  8  9  1  0  0  0  0
  9 10  1  0  0  0  0
 10 11  1  0  0  0  0
  3 12  2  0  0  0  0
  3 13  1  0  0  0  0
  1 13  1  0  0  0  0
 11 37  2  0  0  0  0
 37 38  1  0  0  0  0
 38 39  1  0  0  0  0
 39 40  1  0  0  0  0
 15 41  2  0  0  0  0
 41 42  1  0  0  0  0
 42 43  1  0  0  0  0
 43 44  1  0  0  0  0
 44 45  1  0  0  0  0
 45 46  1  0  0  0  0
 46 47  1  0  0  0  0
 47 48  1  0  0  0  0
 48 49  1  0  0  0  0
 27 50  2  0  0  0  0
 50 51  1  0  0  0  0
 51 52  1  0  0  0  0
 52 53  2  0  0  0  0
 53 54  1  0  0  0  0
 54 55  1  0  0  0  0
 55 56  1  0  0  0  0
 56 57  1  0  0  0  0
 57 58  1  0  0  0  0
 40 59  1  0  0  0  0
 59 60  1  0  0  0  0
 60 61  1  0  0  0  0
 61 62  1  0  0  0  0
 62 63  1  0  0  0  0
M  END
>  <cdx:fragmentId>
13

$$$$
