99834.cdx
  Mrv1902 05222410202D          

 61 60  0  0  0  0            999 V2000
   14.3914   -8.8925    0.0000 C   0  0  0  0  0  0  0  0  0  0  0  0
   12.2462   -7.6833    0.0000 O   0  0  0  0  0  0  0  0  0  0  0  0
   15.8087   -8.8855    0.0000 C   0  0  0  0  0  0  0  0  0  0  0  0
   16.5197   -8.4754    0.0000 C   0  0  0  0  0  0  0  0  0  0  0  0
   17.2304   -8.8861    0.0000 C   0  0  0  0  0  0  0  0  0  0  0  0
   17.9415   -8.4760    0.0000 C   0  0  0  0  0  0  0  0  0  0  0  0
   18.6521   -8.8867    0.0000 C   0  0  0  0  0  0  0  0  0  0  0  0
   19.3632   -8.4766    0.0000 C   0  0  0  0  0  0  0  0  0  0  0  0
   20.0739   -8.8873    0.0000 C   0  0  0  0  0  0  0  0  0  0  0  0
   20.7849   -8.4772    0.0000 C   0  0  0  0  0  0  0  0  0  0  0  0
   21.4956   -8.8879    0.0000 C   0  0  0  0  0  0  0  0  0  0  0  0
   15.8083   -9.7063    0.0000 O   0  0  0  0  0  0  0  0  0  0  0  0
   15.0980   -8.4747    0.0000 O   0  0  0  0  0  0  0  0  0  0  0  0
   13.6933  -10.1310    0.0000 O   0  0  0  0  0  0  0  0  0  0  0  0
    7.2831   -8.9659    0.0000 C   0  0  0  0  0  0  0  0  0  0  0  0
    7.9896   -8.5482    0.0000 C   0  0  0  0  0  0  0  0  0  0  0  0
    8.7047   -8.9512    0.0000 C   0  0  0  0  0  0  0  0  0  0  0  0
    9.4113   -8.5335    0.0000 C   0  0  0  0  0  0  0  0  0  0  0  0
   10.1264   -8.9365    0.0000 C   0  0  0  0  0  0  0  0  0  0  0  0
   10.8330   -8.5188    0.0000 C   0  0  0  0  0  0  0  0  0  0  0  0
   11.5480   -8.9219    0.0000 C   0  0  0  0  0  0  0  0  0  0  0  0
   12.2546   -8.5041    0.0000 C   0  0  0  0  0  0  0  0  0  0  0  0
   12.9697   -8.9072    0.0000 O   0  0  0  0  0  0  0  0  0  0  0  0
   13.6763   -8.4894    0.0000 C   0  0  0  0  0  0  0  0  0  0  0  0
   14.4168  -11.3549    0.0000 O   0  0  0  0  0  0  0  0  0  0  0  0
   10.9093  -15.9060    0.0000 C   0  0  0  0  0  0  0  0  0  0  0  0
   10.9008  -15.0852    0.0000 C   0  0  0  0  0  0  0  0  0  0  0  0
   11.6074  -14.6674    0.0000 C   0  0  0  0  0  0  0  0  0  0  0  0
   11.5989  -13.8466    0.0000 C   0  0  0  0  0  0  0  0  0  0  0  0
   12.3055  -13.4289    0.0000 C   0  0  0  0  0  0  0  0  0  0  0  0
   12.2970  -12.6081    0.0000 C   0  0  0  0  0  0  0  0  0  0  0  0
   13.0036  -12.1904    0.0000 C   0  0  0  0  0  0  0  0  0  0  0  0
   12.9951  -11.3696    0.0000 C   0  0  0  0  0  0  0  0  0  0  0  0
   13.7017  -10.9518    0.0000 C   0  0  0  0  0  0  0  0  0  0  0  0
   14.3999   -9.7133    0.0000 C   0  0  0  0  0  0  0  0  0  0  0  0
   22.2103   -8.4757    0.0000 C   0  0  0  0  0  0  0  0  0  0  0  0
   22.2106   -7.6507    0.0000 C   0  0  0  0  0  0  0  0  0  0  0  0
   22.9253   -7.2385    0.0000 C   0  0  0  0  0  0  0  0  0  0  0  0
   22.9256   -6.4135    0.0000 C   0  0  0  0  0  0  0  0  0  0  0  0
   22.2113   -6.0007    0.0000 C   0  0  0  0  0  0  0  0  0  0  0  0
   22.2117   -5.1757    0.0000 C   0  0  0  0  0  0  0  0  0  0  0  0
   21.4974   -4.7629    0.0000 C   0  0  0  0  0  0  0  0  0  0  0  0
   21.4978   -3.9379    0.0000 C   0  0  0  0  0  0  0  0  0  0  0  0
   20.7835   -3.5251    0.0000 C   0  0  0  0  0  0  0  0  0  0  0  0
    6.5680   -8.5629    0.0000 C   0  0  0  0  0  0  0  0  0  0  0  0
   10.1991  -16.3258    0.0000 C   0  0  0  0  0  0  0  0  0  0  0  0
    9.4804  -15.9207    0.0000 C   0  0  0  0  0  0  0  0  0  0  0  0
    8.7702  -16.3406    0.0000 C   0  0  0  0  0  0  0  0  0  0  0  0
    8.0515  -15.9355    0.0000 C   0  0  0  0  0  0  0  0  0  0  0  0
    8.0430  -15.1105    0.0000 C   0  0  0  0  0  0  0  0  0  0  0  0
    7.3243  -14.7054    0.0000 C   0  0  0  0  0  0  0  0  0  0  0  0
    7.3158  -13.8805    0.0000 C   0  0  0  0  0  0  0  0  0  0  0  0
    6.5971  -13.4754    0.0000 C   0  0  0  0  0  0  0  0  0  0  0  0
    5.8869  -13.8952    0.0000 C   0  0  0  0  0  0  0  0  0  0  0  0
    5.8578   -8.9827    0.0000 C   0  0  0  0  0  0  0  0  0  0  0  0
    5.1391   -8.5776    0.0000 C   0  0  0  0  0  0  0  0  0  0  0  0
    4.4289   -8.9975    0.0000 C   0  0  0  0  0  0  0  0  0  0  0  0
    3.7102   -8.5924    0.0000 C   0  0  0  0  0  0  0  0  0  0  0  0
    3.0001   -9.0122    0.0000 C   0  0  0  0  0  0  0  0  0  0  0  0
    2.2814   -8.6071    0.0000 C   0  0  0  0  0  0  0  0  0  0  0  0
    1.5712   -9.0270    0.0000 C   0  0  0  0  0  0  0  0  0  0  0  0
 35 14  1  0  0  0  0
 24 23  1  0  0  0  0
 23 22  1  0  0  0  0
 22  2  2  0  0  0  0
 15 45  1  0  0  0  0
 16 15  1  0  0  0  0
 17 16  1  0  0  0  0
 18 17  1  0  0  0  0
 19 18  1  0  0  0  0
 20 19  1  0  0  0  0
 21 20  1  0  0  0  0
 22 21  1  0  0  0  0
 34 14  1  0  0  0  0
 34 25  2  0  0  0  0
 27 26  1  0  0  0  0
 28 27  1  0  0  0  0
 29 28  1  0  0  0  0
 30 29  1  0  0  0  0
 31 30  1  0  0  0  0
 32 31  1  0  0  0  0
 33 32  1  0  0  0  0
 34 33  1  0  0  0  0
  1 35  1  0  0  0  0
  1 24  1  0  0  0  0
  3  4  1  0  0  0  0
  4  5  1  0  0  0  0
  5  6  1  0  0  0  0
  6  7  1  0  0  0  0
  7  8  1  0  0  0  0
  8  9  1  0  0  0  0
  9 10  1  0  0  0  0
 10 11  1  0  0  0  0
  3 12  2  0  0  0  0
  3 13  1  0  0  0  0
  1 13  1  0  0  0  0
 11 36  2  0  0  0  0
 36 37  1  0  0  0  0
 37 38  1  0  0  0  0
 38 39  2  0  0  0  0
 39 40  1  0  0  0  0
 40 41  1  0  0  0  0
 41 42  1  0  0  0  0
 42 43  1  0  0  0  0
 43 44  1  0  0  0  0
 26 46  2  0  0  0  0
 46 47  1  0  0  0  0
 47 48  1  0  0  0  0
 48 49  2  0  0  0  0
 49 50  1  0  0  0  0
 50 51  1  0  0  0  0
 51 52  1  0  0  0  0
 52 53  1  0  0  0  0
 53 54  1  0  0  0  0
 45 55  1  0  0  0  0
 55 56  1  0  0  0  0
 56 57  1  0  0  0  0
 57 58  1  0  0  0  0
 58 59  1  0  0  0  0
 59 60  1  0  0  0  0
 60 61  1  0  0  0  0
M  END
>  <cdx:fragmentId>
13

$$$$
