99838.cdx
  Mrv1902 05222410262D          

 17 19  0  0  0  0            999 V2000
    4.1105   -6.5101    0.0000 Cl  0  0  0  0  0  0  0  0  0  0  0  0
   10.7138   -8.1585    0.0000 Cl  0  0  0  0  0  0  0  0  0  0  0  0
    9.2639   -8.4014    0.0000 S   0  0  0  0  0  0  0  0  0  0  0  0
    9.9270   -7.9105    0.0000 C   0  0  0  0  0  0  0  0  0  0  0  0
    9.6651   -7.1282    0.0000 C   0  0  0  0  0  0  0  0  0  0  0  0
    8.8401   -7.1355    0.0000 C   0  0  0  0  0  0  0  0  0  0  0  0
    5.4263   -7.1658    0.0000 S   0  0  0  0  0  0  0  0  0  0  0  0
    4.6013   -7.1732    0.0000 C   0  0  0  0  0  0  0  0  0  0  0  0
    4.3533   -7.9600    0.0000 C   0  0  0  0  0  0  0  0  0  0  0  0
    5.0251   -8.4390    0.0000 C   0  0  0  0  0  0  0  0  0  0  0  0
    8.5922   -7.9224    0.0000 C   0  0  0  0  0  0  0  0  0  0  0  0
    5.6882   -7.9482    0.0000 C   0  0  0  0  0  0  0  0  0  0  0  0
    7.1381   -7.7053    0.0000 S   0  0  0  0  0  0  0  0  0  0  0  0
    6.4750   -8.1961    0.0000 C   0  0  0  0  0  0  0  0  0  0  0  0
    6.7369   -8.9785    0.0000 C   0  0  0  0  0  0  0  0  0  0  0  0
    7.5619   -8.9711    0.0000 C   0  0  0  0  0  0  0  0  0  0  0  0
    7.8098   -8.1843    0.0000 C   0  0  0  0  0  0  0  0  0  0  0  0
  8  1  1  0  0  0  0
  4  2  1  0  0  0  0
  3 11  1  0  0  0  0
  4  3  1  0  0  0  0
  5  4  2  0  0  0  0
  6  5  1  0  0  0  0
 11  6  2  0  0  0  0
  7 12  1  0  0  0  0
  8  7  1  0  0  0  0
  9  8  2  0  0  0  0
 10  9  1  0  0  0  0
 12 10  2  0  0  0  0
 17 11  1  0  0  0  0
 14 12  1  0  0  0  0
 13 17  1  0  0  0  0
 14 13  1  0  0  0  0
 15 14  2  0  0  0  0
 16 15  1  0  0  0  0
 17 16  2  0  0  0  0
M  END
>  <cdx:fragmentId>
5

$$$$
