99842.cdx
  Mrv1902 05222410232D          

 18 20  0  0  0  0            999 V2000
   11.3220   -6.8552    0.0000 C   0  0  0  0  0  0  0  0  0  0  0  0
   10.8925   -8.2180    0.0000 O   0  0  0  0  0  0  0  0  0  0  0  0
   10.7138   -7.4126    0.0000 C   0  0  0  0  0  0  0  0  0  0  0  0
    9.2639   -7.6555    0.0000 S   0  0  0  0  0  0  0  0  0  0  0  0
    9.9270   -7.1647    0.0000 C   0  0  0  0  0  0  0  0  0  0  0  0
    9.6651   -6.3823    0.0000 C   0  0  0  0  0  0  0  0  0  0  0  0
    8.8401   -6.3897    0.0000 C   0  0  0  0  0  0  0  0  0  0  0  0
    5.4263   -6.4200    0.0000 S   0  0  0  0  0  0  0  0  0  0  0  0
    4.6013   -6.4273    0.0000 C   0  0  0  0  0  0  0  0  0  0  0  0
    4.3533   -7.2142    0.0000 C   0  0  0  0  0  0  0  0  0  0  0  0
    5.0251   -7.6931    0.0000 C   0  0  0  0  0  0  0  0  0  0  0  0
    8.5922   -7.1765    0.0000 C   0  0  0  0  0  0  0  0  0  0  0  0
    5.6882   -7.2023    0.0000 C   0  0  0  0  0  0  0  0  0  0  0  0
    7.1381   -6.9594    0.0000 S   0  0  0  0  0  0  0  0  0  0  0  0
    6.4750   -7.4503    0.0000 C   0  0  0  0  0  0  0  0  0  0  0  0
    6.7369   -8.2326    0.0000 C   0  0  0  0  0  0  0  0  0  0  0  0
    7.5619   -8.2253    0.0000 C   0  0  0  0  0  0  0  0  0  0  0  0
    7.8098   -7.4384    0.0000 C   0  0  0  0  0  0  0  0  0  0  0  0
  3  1  1  0  0  0  0
  3  2  2  0  0  0  0
  5  3  1  0  0  0  0
  4 12  1  0  0  0  0
  5  4  1  0  0  0  0
  6  5  2  0  0  0  0
  7  6  1  0  0  0  0
 12  7  2  0  0  0  0
  8 13  1  0  0  0  0
  9  8  1  0  0  0  0
 10  9  2  0  0  0  0
 11 10  1  0  0  0  0
 13 11  2  0  0  0  0
 18 12  1  0  0  0  0
 15 13  1  0  0  0  0
 14 18  1  0  0  0  0
 15 14  1  0  0  0  0
 16 15  2  0  0  0  0
 17 16  1  0  0  0  0
 18 17  2  0  0  0  0
M  END
>  <cdx:fragmentId>
5

$$$$
