99843.cdx
  Mrv1902 05222410222D          

 16 18  0  0  0  0            999 V2000
   10.7138   -7.5027    0.0000 Cl  0  0  0  0  0  0  0  0  0  0  0  0
    9.2639   -7.7456    0.0000 S   0  0  0  0  0  0  0  0  0  0  0  0
    9.9270   -7.2547    0.0000 C   0  0  0  0  0  0  0  0  0  0  0  0
    9.6651   -6.4724    0.0000 C   0  0  0  0  0  0  0  0  0  0  0  0
    8.8401   -6.4797    0.0000 C   0  0  0  0  0  0  0  0  0  0  0  0
    5.4263   -6.5101    0.0000 S   0  0  0  0  0  0  0  0  0  0  0  0
    4.6013   -6.5174    0.0000 C   0  0  0  0  0  0  0  0  0  0  0  0
    4.3533   -7.3042    0.0000 C   0  0  0  0  0  0  0  0  0  0  0  0
    5.0251   -7.7832    0.0000 C   0  0  0  0  0  0  0  0  0  0  0  0
    8.5922   -7.2666    0.0000 C   0  0  0  0  0  0  0  0  0  0  0  0
    5.6882   -7.2924    0.0000 C   0  0  0  0  0  0  0  0  0  0  0  0
    7.1381   -7.0495    0.0000 S   0  0  0  0  0  0  0  0  0  0  0  0
    6.4750   -7.5404    0.0000 C   0  0  0  0  0  0  0  0  0  0  0  0
    6.7369   -8.3227    0.0000 C   0  0  0  0  0  0  0  0  0  0  0  0
    7.5619   -8.3154    0.0000 C   0  0  0  0  0  0  0  0  0  0  0  0
    7.8098   -7.5285    0.0000 C   0  0  0  0  0  0  0  0  0  0  0  0
  3  1  1  0  0  0  0
  2 10  1  0  0  0  0
  3  2  1  0  0  0  0
  4  3  2  0  0  0  0
  5  4  1  0  0  0  0
 10  5  2  0  0  0  0
  6 11  1  0  0  0  0
  7  6  1  0  0  0  0
  8  7  2  0  0  0  0
  9  8  1  0  0  0  0
 11  9  2  0  0  0  0
 16 10  1  0  0  0  0
 13 11  1  0  0  0  0
 12 16  1  0  0  0  0
 13 12  1  0  0  0  0
 14 13  2  0  0  0  0
 15 14  1  0  0  0  0
 16 15  2  0  0  0  0
M  END
>  <cdx:fragmentId>
5

$$$$
