99845.cdx
  Mrv1902 05222410212D          

 28 32  0  0  0  0            999 V2000
    4.2256   -7.5625    0.0000 C   0  0  0  0  0  0  0  0  0  0  0  0
    4.2256   -8.3875    0.0000 C   0  0  0  0  0  0  0  0  0  0  0  0
    5.0506   -8.3875    0.0000 C   0  0  2  0  0  0  0  0  0  0  0  0
    5.0506   -7.5625    0.0000 C   0  0  2  0  0  0  0  0  0  0  0  0
    5.6340   -6.9791    0.0000 C   0  0  0  0  0  0  0  0  0  0  0  0
    6.2174   -6.3958    0.0000 C   0  0  0  0  0  0  0  0  0  0  0  0
    6.8007   -5.8124    0.0000 C   0  0  0  0  0  0  0  0  0  0  0  0
    7.6156   -5.9415    0.0000 S   0  0  0  0  0  0  0  0  0  0  0  0
    7.9901   -5.2064    0.0000 C   0  0  0  0  0  0  0  0  0  0  0  0
    7.4068   -4.6230    0.0000 C   0  0  0  0  0  0  0  0  0  0  0  0
    6.6717   -4.9976    0.0000 C   0  0  0  0  0  0  0  0  0  0  0  0
    8.8050   -5.0773    0.0000 C   0  0  0  0  0  0  0  0  0  0  0  0
    9.3883   -5.6607    0.0000 S   0  0  0  0  0  0  0  0  0  0  0  0
   10.1234   -5.2862    0.0000 C   0  0  0  0  0  0  0  0  0  0  0  0
    9.9944   -4.4713    0.0000 C   0  0  0  0  0  0  0  0  0  0  0  0
    9.1795   -4.3422    0.0000 C   0  0  0  0  0  0  0  0  0  0  0  0
    5.6340   -8.9709    0.0000 C   0  0  0  0  0  0  0  0  0  0  0  0
    6.2174   -9.5542    0.0000 C   0  0  0  0  0  0  0  0  0  0  0  0
    6.8007  -10.1376    0.0000 C   0  0  0  0  0  0  0  0  0  0  0  0
    6.6717  -10.9524    0.0000 S   0  0  0  0  0  0  0  0  0  0  0  0
    7.4068  -11.3270    0.0000 C   0  0  0  0  0  0  0  0  0  0  0  0
    7.9901  -10.7436    0.0000 C   0  0  0  0  0  0  0  0  0  0  0  0
    7.6156  -10.0085    0.0000 C   0  0  0  0  0  0  0  0  0  0  0  0
    7.5358  -12.1418    0.0000 C   0  0  0  0  0  0  0  0  0  0  0  0
    6.9525  -12.7252    0.0000 S   0  0  0  0  0  0  0  0  0  0  0  0
    7.3270  -13.4603    0.0000 C   0  0  0  0  0  0  0  0  0  0  0  0
    8.1418  -13.3312    0.0000 C   0  0  0  0  0  0  0  0  0  0  0  0
    8.2709  -12.5164    0.0000 C   0  0  0  0  0  0  0  0  0  0  0  0
  1  2  1  0  0  0  0
  2  3  1  0  0  0  0
  3  4  1  0  0  0  0
  4  1  1  0  0  0  0
  4  5  1  1  0  0  0
  5  6  3  0  0  0  0
  6  7  1  0  0  0  0
  7  8  1  0  0  0  0
  8  9  1  0  0  0  0
  9 10  2  0  0  0  0
 10 11  1  0  0  0  0
 11  7  2  0  0  0  0
  9 12  1  0  0  0  0
 12 13  1  0  0  0  0
 13 14  1  0  0  0  0
 14 15  2  0  0  0  0
 15 16  1  0  0  0  0
 16 12  2  0  0  0  0
  3 17  1  6  0  0  0
 17 18  3  0  0  0  0
 18 19  1  0  0  0  0
 19 20  1  0  0  0  0
 20 21  1  0  0  0  0
 21 22  2  0  0  0  0
 22 23  1  0  0  0  0
 23 19  2  0  0  0  0
 21 24  1  0  0  0  0
 24 25  1  0  0  0  0
 25 26  1  0  0  0  0
 26 27  2  0  0  0  0
 27 28  1  0  0  0  0
 28 24  2  0  0  0  0
M  END
>  <cdx:fragmentId>
5

$$$$
