99849.cdx
  Mrv1902 05222410252D          

 40 45  0  0  0  0            999 V2000
    3.6023  -11.5286    0.0000 C   0  0  0  0  0  0  0  0  0  0  0  0
    3.6023  -12.3536    0.0000 C   0  0  1  0  0  0  0  0  0  0  0  0
    4.3167  -12.7661    0.0000 C   0  0  0  0  0  0  0  0  0  0  0  0
    5.0312  -12.3536    0.0000 C   0  0  1  0  0  0  0  0  0  0  0  0
    5.0312  -11.5286    0.0000 C   0  0  2  0  0  0  0  0  0  0  0  0
    4.3167  -11.1161    0.0000 C   0  0  0  0  0  0  0  0  0  0  0  0
    5.7457  -12.7661    0.0000 C   0  0  0  0  0  0  0  0  0  0  0  0
    6.4601  -12.3536    0.0000 C   0  0  0  0  0  0  0  0  0  0  0  0
    6.4601  -11.5286    0.0000 C   0  0  2  0  0  0  0  0  0  0  0  0
    5.7457  -11.1161    0.0000 C   0  0  2  0  0  0  0  0  0  0  0  0
    7.0732  -10.9766    0.0000 C   0  0  1  0  0  0  0  0  0  0  0  0
    6.7377  -10.2229    0.0000 C   0  0  1  0  0  0  0  0  0  0  0  0
    5.9172  -10.3091    0.0000 C   0  0  0  0  0  0  0  0  0  0  0  0
    7.8937  -11.0628    0.0000 C   0  0  0  0  0  0  0  0  0  0  0  0
    8.3786  -10.3954    0.0000 C   0  0  0  0  0  0  0  0  0  0  0  0
    8.0431   -9.6417    0.0000 C   0  0  2  0  0  0  0  0  0  0  0  0
    7.2226   -9.5555    0.0000 C   0  0  1  0  0  0  0  0  0  0  0  0
    2.8878  -12.7661    0.0000 O   0  0  0  0  0  0  0  0  0  0  0  0
    5.0312  -10.7036    0.0000 C   0  0  0  0  0  0  0  0  0  0  0  0
    5.0312  -13.1786    0.0000 H   0  0  0  0  0  0  0  0  0  0  0  0
    7.4857  -11.6911    0.0000 H   0  0  0  0  0  0  0  0  0  0  0  0
    7.1746  -11.9411    0.0000 H   0  0  0  0  0  0  0  0  0  0  0  0
    5.7457  -11.9411    0.0000 H   0  0  0  0  0  0  0  0  0  0  0  0
    5.7457  -13.5911    0.0000 O   0  0  0  0  0  0  0  0  0  0  0  0
    6.3252   -9.5084    0.0000 H   0  0  0  0  0  0  0  0  0  0  0  0
    8.5280   -8.9743    0.0000 C   0  0  1  0  0  0  0  0  0  0  0  0
    8.1925   -8.2206    0.0000 C   0  0  1  0  0  0  0  0  0  0  0  0
    7.3720   -8.1344    0.0000 C   0  0  0  0  0  0  0  0  0  0  0  0
    6.8871   -8.8018    0.0000 C   0  0  0  0  0  0  0  0  0  0  0  0
    8.6774   -7.5532    0.0000 C   0  0  0  0  0  0  0  0  0  0  0  0
    8.3418   -6.7995    0.0000 C   0  0  0  0  0  0  0  0  0  0  0  0
    7.5213   -6.7132    0.0000 C   0  0  1  0  0  0  0  0  0  0  0  0
    7.0364   -7.3807    0.0000 C   0  0  0  0  0  0  0  0  0  0  0  0
    7.6351  -10.2699    0.0000 H   0  0  0  0  0  0  0  0  0  0  0  0
    7.6306   -8.9272    0.0000 H   0  0  0  0  0  0  0  0  0  0  0  0
    9.2425   -8.5618    0.0000 O   0  0  0  0  0  0  0  0  0  0  0  0
    9.2425   -9.3868    0.0000 C   0  0  0  0  0  0  0  0  0  0  0  0
    7.7800   -7.5061    0.0000 H   0  0  0  0  0  0  0  0  0  0  0  0
    6.8069   -6.3007    0.0000 C   0  0  0  0  0  0  0  0  0  0  0  0
    7.5213   -5.8882    0.0000 O   0  0  0  0  0  0  0  0  0  0  0  0
  1  2  1  0  0  0  0
  2  3  1  0  0  0  0
  3  4  1  0  0  0  0
  4  5  1  0  0  0  0
  5  6  1  0  0  0  0
  6  1  1  0  0  0  0
  4  7  1  0  0  0  0
  7  8  1  0  0  0  0
  8  9  1  0  0  0  0
  9 10  1  0  0  0  0
 10  5  1  0  0  0  0
  9 11  1  0  0  0  0
 11 12  1  0  0  0  0
 12 13  1  0  0  0  0
 13 10  1  0  0  0  0
 11 14  1  0  0  0  0
 14 15  1  0  0  0  0
 15 16  1  0  0  0  0
 16 17  1  0  0  0  0
 17 12  1  0  0  0  0
  2 18  1  1  0  0  0
  5 19  1  1  0  0  0
  4 20  1  6  0  0  0
 11 21  1  6  0  0  0
  9 22  1  1  0  0  0
 10 23  1  6  0  0  0
  7 24  2  0  0  0  0
 12 25  1  6  0  0  0
 16 26  1  0  0  0  0
 26 27  1  0  0  0  0
 27 28  1  0  0  0  0
 28 29  1  0  0  0  0
 29 17  1  0  0  0  0
 27 30  1  0  0  0  0
 30 31  1  0  0  0  0
 31 32  1  0  0  0  0
 32 33  1  0  0  0  0
 33 28  1  0  0  0  0
 17 34  1  1  0  0  0
 16 35  1  1  0  0  0
 26 36  1  1  0  0  0
 26 37  1  6  0  0  0
 27 38  1  6  0  0  0
 32 39  1  1  0  0  0
 32 40  1  6  0  0  0
M  END
>  <cdx:fragmentId>
2012

$$$$
