99841.cdx
  Mrv1902 05222410222D          

 21 22  0  0  0  0            999 V2000
    9.5637   -7.8504    0.0000 C   0  0  0  0  0  0  0  0  0  0  0  0
    9.3087   -8.6350    0.0000 C   0  0  0  0  0  0  0  0  0  0  0  0
    8.4837   -8.6350    0.0000 C   0  0  0  0  0  0  0  0  0  0  0  0
    8.2288   -7.8504    0.0000 C   0  0  0  0  0  0  0  0  0  0  0  0
    8.8962   -7.3655    0.0000 S   0  0  0  0  0  0  0  0  0  0  0  0
   10.3483   -7.5955    0.0000 C   0  0  0  0  0  0  0  0  0  0  0  0
   10.6032   -6.8108    0.0000 C   0  0  0  0  0  0  0  0  0  0  0  0
   11.4282   -6.8108    0.0000 C   0  0  0  0  0  0  0  0  0  0  0  0
   11.6832   -7.5955    0.0000 C   0  0  0  0  0  0  0  0  0  0  0  0
   11.0157   -8.0804    0.0000 S   0  0  0  0  0  0  0  0  0  0  0  0
    7.5359   -7.4506    0.0000 C   0  0  0  0  0  0  0  0  0  0  0  0
    6.8207   -7.0394    0.0000 C   0  0  0  0  0  0  0  0  0  0  0  0
    6.1055   -6.6281    0.0000 C   0  0  0  0  0  0  0  0  0  0  0  0
    5.3917   -7.0419    0.0000 C   0  0  0  0  0  0  0  0  0  0  0  0
    4.6765   -6.6307    0.0000 O   0  0  0  0  0  0  0  0  0  0  0  0
    3.9628   -7.0444    0.0000 C   0  0  0  0  0  0  0  0  0  0  0  0
    3.2476   -6.6332    0.0000 C   0  0  0  0  0  0  0  0  0  0  0  0
    2.5339   -7.0470    0.0000 C   0  0  0  0  0  0  0  0  0  0  0  0
    3.9643   -7.8694    0.0000 O   0  0  0  0  0  0  0  0  0  0  0  0
    1.8187   -6.6358    0.0000 C   0  0  0  0  0  0  0  0  0  0  0  0
    2.5353   -7.8720    0.0000 C   0  0  0  0  0  0  0  0  0  0  0  0
  1  2  2  0  0  0  0
  2  3  1  0  0  0  0
  3  4  2  0  0  0  0
  4  5  1  0  0  0  0
  1  5  1  0  0  0  0
  6  7  2  0  0  0  0
  7  8  1  0  0  0  0
  8  9  2  0  0  0  0
  9 10  1  0  0  0  0
  6 10  1  0  0  0  0
  1  6  1  0  0  0  0
 11 12  3  0  0  0  0
 12 13  1  0  0  0  0
 11  4  1  0  0  0  0
 13 14  1  0  0  0  0
 14 15  1  0  0  0  0
 15 16  1  0  0  0  0
 16 17  1  0  0  0  0
 17 18  1  0  0  0  0
 16 19  2  0  0  0  0
 18 20  1  0  0  0  0
 18 21  1  0  0  0  0
M  END
>  <cdx:fragmentId>
317

$$$$
