99844.cdx
  Mrv1902 05222410212D          

 13 14  0  0  0  0            999 V2000
    7.4496   -8.8312    0.0000 C   0  0  0  0  0  0  0  0  0  0  0  0
    7.1947   -9.6158    0.0000 C   0  0  0  0  0  0  0  0  0  0  0  0
    6.3697   -9.6158    0.0000 C   0  0  0  0  0  0  0  0  0  0  0  0
    6.1147   -8.8312    0.0000 C   0  0  0  0  0  0  0  0  0  0  0  0
    6.7822   -8.3463    0.0000 S   0  0  0  0  0  0  0  0  0  0  0  0
    8.2342   -8.5763    0.0000 C   0  0  0  0  0  0  0  0  0  0  0  0
    8.4891   -7.7917    0.0000 C   0  0  0  0  0  0  0  0  0  0  0  0
    9.3141   -7.7917    0.0000 C   0  0  0  0  0  0  0  0  0  0  0  0
    9.5691   -8.5763    0.0000 C   0  0  0  0  0  0  0  0  0  0  0  0
    8.9016   -9.0612    0.0000 S   0  0  0  0  0  0  0  0  0  0  0  0
    5.4218   -8.4314    0.0000 C   0  0  0  0  0  0  0  0  0  0  0  0
    5.4216   -7.6064    0.0000 O   0  0  0  0  0  0  0  0  0  0  0  0
    4.7075   -8.8441    0.0000 O   0  0  0  0  0  0  0  0  0  0  0  0
  1  2  2  0  0  0  0
  2  3  1  0  0  0  0
  3  4  2  0  0  0  0
  4  5  1  0  0  0  0
  1  5  1  0  0  0  0
  6  7  2  0  0  0  0
  7  8  1  0  0  0  0
  8  9  2  0  0  0  0
  9 10  1  0  0  0  0
  6 10  1  0  0  0  0
  1  6  1  0  0  0  0
 11  4  1  0  0  0  0
 11 12  2  0  0  0  0
 11 13  1  0  0  0  0
M  END
>  <cdx:fragmentId>
15

$$$$
