99840.cdx
  Mrv1902 05222410222D          

 14 15  0  0  0  0            999 V2000
    8.2746   -9.0787    0.0000 C   0  0  0  0  0  0  0  0  0  0  0  0
    8.0197   -9.8633    0.0000 C   0  0  0  0  0  0  0  0  0  0  0  0
    7.1947   -9.8633    0.0000 C   0  0  0  0  0  0  0  0  0  0  0  0
    6.9397   -9.0787    0.0000 C   0  0  0  0  0  0  0  0  0  0  0  0
    7.6072   -8.5938    0.0000 S   0  0  0  0  0  0  0  0  0  0  0  0
    9.0592   -8.8238    0.0000 C   0  0  0  0  0  0  0  0  0  0  0  0
    9.3141   -8.0392    0.0000 C   0  0  0  0  0  0  0  0  0  0  0  0
   10.1391   -8.0392    0.0000 C   0  0  0  0  0  0  0  0  0  0  0  0
   10.3941   -8.8238    0.0000 C   0  0  0  0  0  0  0  0  0  0  0  0
    9.7266   -9.3087    0.0000 S   0  0  0  0  0  0  0  0  0  0  0  0
    6.2468   -8.6789    0.0000 C   0  0  0  0  0  0  0  0  0  0  0  0
    5.5316   -8.2677    0.0000 C   0  0  0  0  0  0  0  0  0  0  0  0
    4.8164   -7.8565    0.0000 C   0  0  0  0  0  0  0  0  0  0  0  0
    4.1027   -8.2702    0.0000 C   0  0  0  0  0  0  0  0  0  0  0  0
  1  2  2  0  0  0  0
  2  3  1  0  0  0  0
  3  4  2  0  0  0  0
  4  5  1  0  0  0  0
  1  5  1  0  0  0  0
  6  7  2  0  0  0  0
  7  8  1  0  0  0  0
  8  9  2  0  0  0  0
  9 10  1  0  0  0  0
  6 10  1  0  0  0  0
  1  6  1  0  0  0  0
 11 12  3  0  0  0  0
 12 13  1  0  0  0  0
 13 14  2  0  0  0  0
 11  4  1  0  0  0  0
M  END
>  <cdx:fragmentId>
15

$$$$
