99858.cdx
  Mrv1902 05222410242D          

 75 83  0  0  0  0            999 V2000
   21.5245   -4.8400    0.0000 C   0  0  0  0  0  0  0  0  0  0  0  0
   22.2390   -4.4275    0.0000 C   0  0  0  0  0  0  0  0  0  0  0  0
   22.9535   -4.8400    0.0000 C   0  0  0  0  0  0  0  0  0  0  0  0
   22.9535   -5.6650    0.0000 C   0  0  0  0  0  0  0  0  0  0  0  0
   22.2390   -6.0775    0.0000 C   0  0  2  0  0  0  0  0  0  0  0  0
   22.2390   -6.9025    0.0000 C   0  0  0  0  0  0  0  0  0  0  0  0
   21.5245   -7.3150    0.0000 C   0  0  0  0  0  0  0  0  0  0  0  0
   20.8100   -6.9025    0.0000 C   0  0  1  0  0  0  0  0  0  0  0  0
   20.0956   -7.3150    0.0000 C   0  0  2  0  0  0  0  0  0  0  0  0
   20.0956   -8.1400    0.0000 C   0  0  0  0  0  0  0  0  0  0  0  0
   19.3811   -8.5525    0.0000 C   0  0  0  0  0  0  0  0  0  0  0  0
   18.6666   -8.1400    0.0000 C   0  0  1  0  0  0  0  0  0  0  0  0
   17.9522   -8.5525    0.0000 C   0  0  0  0  0  0  0  0  0  0  0  0
   17.2377   -8.1400    0.0000 C   0  0  2  0  0  0  0  0  0  0  0  0
   17.2377   -7.3150    0.0000 C   0  0  0  0  0  0  0  0  0  0  0  0
   17.9522   -6.9025    0.0000 C   0  0  0  0  0  0  0  0  0  0  0  0
   18.6666   -7.3150    0.0000 C   0  0  2  0  0  0  0  0  0  0  0  0
   19.3811   -6.9025    0.0000 C   0  0  1  0  0  0  0  0  0  0  0  0
   19.3811   -6.0775    0.0000 C   0  0  0  0  0  0  0  0  0  0  0  0
   20.0956   -5.6650    0.0000 C   0  0  0  0  0  0  0  0  0  0  0  0
   20.8100   -6.0775    0.0000 C   0  0  0  0  0  0  0  0  0  0  0  0
   21.5245   -5.6650    0.0000 C   0  0  2  0  0  0  0  0  0  0  0  0
   22.9535   -6.4900    0.0000 C   0  0  0  0  0  0  0  0  0  0  0  0
   22.9535   -7.3150    0.0000 O   0  0  0  0  0  0  0  0  0  0  0  0
   18.3647   -9.2669    0.0000 C   0  0  0  0  0  0  0  0  0  0  0  0
   17.5397   -9.2669    0.0000 C   0  0  0  0  0  0  0  0  0  0  0  0
   21.8265   -3.7130    0.0000 C   0  0  0  0  0  0  0  0  0  0  0  0
   22.6515   -3.7130    0.0000 C   0  0  0  0  0  0  0  0  0  0  0  0
   16.5232   -8.5525    0.0000 O   0  0  0  0  0  0  0  0  0  0  0  0
   15.8087   -7.3150    0.0000 O   0  0  0  0  0  0  0  0  0  0  0  0
   15.8087   -8.1400    0.0000 C   0  0  2  0  0  0  0  0  0  0  0  0
   15.0943   -8.5525    0.0000 C   0  0  1  0  0  0  0  0  0  0  0  0
   14.3798   -8.1400    0.0000 C   0  0  2  0  0  0  0  0  0  0  0  0
   14.3798   -7.3150    0.0000 C   0  0  2  0  0  0  0  0  0  0  0  0
   15.0943   -6.9025    0.0000 C   0  0  0  0  0  0  0  0  0  0  0  0
   13.6653   -6.9025    0.0000 O   0  0  0  0  0  0  0  0  0  0  0  0
   13.6653   -8.5525    0.0000 O   0  0  0  0  0  0  0  0  0  0  0  0
   15.0943   -9.3775    0.0000 O   0  0  0  0  0  0  0  0  0  0  0  0
   13.6653   -9.3775    0.0000 O   0  0  0  0  0  0  0  0  0  0  0  0
   14.3798   -9.7900    0.0000 C   0  0  2  0  0  0  0  0  0  0  0  0
   14.3798  -10.6150    0.0000 C   0  0  1  0  0  0  0  0  0  0  0  0
   13.6653  -11.0275    0.0000 C   0  0  1  0  0  0  0  0  0  0  0  0
   12.9509  -10.6150    0.0000 C   0  0  2  0  0  0  0  0  0  0  0  0
   12.9509   -9.7900    0.0000 C   0  0  2  0  0  0  0  0  0  0  0  0
   12.2364   -9.3775    0.0000 C   0  0  0  0  0  0  0  0  0  0  0  0
   12.2364  -11.0275    0.0000 O   0  0  0  0  0  0  0  0  0  0  0  0
   15.0943  -11.0275    0.0000 O   0  0  0  0  0  0  0  0  0  0  0  0
   10.7991  -13.4854    0.0000 O   0  0  0  0  0  0  0  0  0  0  0  0
   10.0982  -12.2401    0.0000 O   0  0  0  0  0  0  0  0  0  0  0  0
   10.0892  -13.0651    0.0000 C   0  0  2  0  0  0  0  0  0  0  0  0
    9.3702  -13.4698    0.0000 C   0  0  1  0  0  0  0  0  0  0  0  0
    8.6603  -13.0495    0.0000 C   0  0  2  0  0  0  0  0  0  0  0  0
    8.6693  -12.2246    0.0000 C   0  0  1  0  0  0  0  0  0  0  0  0
    9.3882  -11.8199    0.0000 C   0  0  1  0  0  0  0  0  0  0  0  0
    9.3972  -10.9949    0.0000 C   0  0  0  0  0  0  0  0  0  0  0  0
    8.6828  -10.5824    0.0000 O   0  0  0  0  0  0  0  0  0  0  0  0
    7.9414  -13.4542    0.0000 O   0  0  0  0  0  0  0  0  0  0  0  0
    9.3612  -14.2947    0.0000 O   0  0  0  0  0  0  0  0  0  0  0  0
    7.9594  -11.8043    0.0000 O   0  0  0  0  0  0  0  0  0  0  0  0
   18.6666   -8.9650    0.0000 H   0  0  0  0  0  0  0  0  0  0  0  0
   21.5245   -6.4900    0.0000 H   0  0  0  0  0  0  0  0  0  0  0  0
   13.6653  -13.5025    0.0000 O   0  0  0  0  0  0  0  0  0  0  0  0
   11.5219  -12.2650    0.0000 C   0  0  0  0  0  0  0  0  0  0  0  0
   11.5219  -13.0900    0.0000 C   0  0  2  0  0  0  0  0  0  0  0  0
   12.2364  -13.5025    0.0000 C   0  0  2  0  0  0  0  0  0  0  0  0
   12.9509  -13.0900    0.0000 C   0  0  2  0  0  0  0  0  0  0  0  0
   12.9509  -12.2650    0.0000 C   0  0  1  0  0  0  0  0  0  0  0  0
   12.2364  -11.8525    0.0000 O   0  0  0  0  0  0  0  0  0  0  0  0
   13.6653  -11.8525    0.0000 O   0  0  0  0  0  0  0  0  0  0  0  0
   23.6679   -6.0775    0.0000 O   0  0  0  0  0  0  0  0  0  0  0  0
   18.6666   -6.4900    0.0000 C   0  0  0  0  0  0  0  0  0  0  0  0
   20.0956   -6.4900    0.0000 C   0  0  0  0  0  0  0  0  0  0  0  0
   20.8100   -7.7275    0.0000 C   0  0  0  0  0  0  0  0  0  0  0  0
   19.3811   -7.7275    0.0000 H   0  0  0  0  0  0  0  0  0  0  0  0
   12.2364  -14.3275    0.0000 O   0  0  0  0  0  0  0  0  0  0  0  0
 67 69  1  1  0  0  0
 49 50  1  0  0  0  0
 50 51  1  0  0  0  0
 66 62  1  6  0  0  0
 68 63  1  0  0  0  0
 64 63  1  0  0  0  0
 65 64  1  0  0  0  0
  1  2  1  0  0  0  0
  2  3  1  0  0  0  0
  3  4  1  0  0  0  0
  4  5  1  0  0  0  0
  5  6  1  0  0  0  0
  6  7  1  0  0  0  0
  7  8  1  0  0  0  0
  8  9  1  0  0  0  0
  9 10  1  0  0  0  0
 10 11  1  0  0  0  0
 11 12  1  0  0  0  0
 12 13  1  0  0  0  0
 13 14  1  0  0  0  0
 14 15  1  0  0  0  0
 15 16  1  0  0  0  0
 16 17  1  0  0  0  0
 12 17  1  0  0  0  0
 17 18  1  0  0  0  0
  9 18  1  0  0  0  0
 18 19  1  0  0  0  0
 19 20  1  0  0  0  0
 20 21  2  0  0  0  0
  8 21  1  0  0  0  0
 21 22  1  0  0  0  0
  5 22  1  0  0  0  0
  1 22  1  0  0  0  0
 23 24  2  0  0  0  0
 23 70  1  0  0  0  0
  5 23  1  1  0  0  0
 13 25  1  0  0  0  0
 13 26  1  0  0  0  0
  2 27  1  0  0  0  0
  2 28  1  0  0  0  0
 30 31  1  0  0  0  0
 31 32  1  0  0  0  0
 32 33  1  0  0  0  0
 33 34  1  0  0  0  0
 34 35  1  0  0  0  0
 30 35  1  0  0  0  0
 34 36  1  1  0  0  0
 33 37  1  1  0  0  0
 39 40  1  0  0  0  0
 40 41  1  0  0  0  0
 41 42  1  0  0  0  0
 42 43  1  0  0  0  0
 43 44  1  0  0  0  0
 39 44  1  0  0  0  0
 44 45  1  6  0  0  0
 43 46  1  1  0  0  0
 41 47  1  6  0  0  0
 66 65  1  0  0  0  0
 67 66  1  0  0  0  0
 68 67  1  0  0  0  0
 51 52  1  0  0  0  0
 52 53  1  0  0  0  0
 53 54  1  0  0  0  0
 49 54  1  0  0  0  0
 55 56  1  0  0  0  0
 54 55  1  1  0  0  0
 52 57  1  1  0  0  0
 51 58  1  6  0  0  0
 53 59  1  6  0  0  0
 50 48  1  1  0  0  0
 42 69  1  6  0  0  0
 40 38  1  1  0  0  0
 32 38  1  6  0  0  0
 31 29  1  1  0  0  0
 14 29  1  1  0  0  0
 12 60  1  6  0  0  0
 22 61  1  1  0  0  0
 17 71  1  1  0  0  0
  9 72  1  1  0  0  0
  8 73  1  6  0  0  0
 18 74  1  6  0  0  0
 65 75  1  6  0  0  0
 64 48  1  6  0  0  0
M  END
>  <cdx:groupId>
181687

>  <cdx:fragmentId>
181457

$$$$
