99856.cdx
  Mrv1902 05222410232D          

 17 17  0  0  0  0            999 V2000
    7.2080   -8.5695    0.0000 S   0  0  0  0  0  0  0  0  0  0  0  0
    6.5521   -9.0700    0.0000 C   0  0  0  0  0  0  0  0  0  0  0  0
    6.8254   -9.8484    0.0000 C   0  0  0  0  0  0  0  0  0  0  0  0
    7.6502   -9.8290    0.0000 C   0  0  0  0  0  0  0  0  0  0  0  0
    7.8866   -9.0387    0.0000 C   0  0  0  0  0  0  0  0  0  0  0  0
   10.2671   -7.2962    0.0000 O   0  0  0  0  0  0  0  0  0  0  0  0
   11.5691   -8.3098    0.0000 O   0  0  0  0  0  0  0  0  0  0  0  0
   10.8047   -8.6202    0.0000 C   0  0  0  0  0  0  0  0  0  0  0  0
   10.1537   -8.1134    0.0000 C   0  0  0  0  0  0  0  0  0  0  0  0
    9.3893   -8.4238    0.0000 C   0  0  0  0  0  0  0  0  0  0  0  0
    8.6250   -8.7341    0.0000 C   0  0  0  0  0  0  0  0  0  0  0  0
    2.5117   -6.8797    0.0000 C   0  0  0  0  0  0  0  0  0  0  0  0
    2.6638   -7.6906    0.0000 C   0  0  0  0  0  0  0  0  0  0  0  0
    3.4421   -7.9642    0.0000 C   0  0  0  0  0  0  0  0  0  0  0  0
    4.2204   -8.2379    0.0000 C   0  0  0  0  0  0  0  0  0  0  0  0
    4.9987   -8.5115    0.0000 C   0  0  0  0  0  0  0  0  0  0  0  0
    5.7770   -8.7852    0.0000 C   0  0  0  0  0  0  0  0  0  0  0  0
 17  2  1  0  0  0  0
 11  5  1  0  0  0  0
  1  5  1  0  0  0  0
  2  1  1  0  0  0  0
  3  2  2  0  0  0  0
  4  3  1  0  0  0  0
  5  4  2  0  0  0  0
  9  6  1  0  0  0  0
  8  7  1  0  0  0  0
  9  8  1  0  0  0  0
 10  9  1  0  0  0  0
 11 10  3  0  0  0  0
 13 12  1  0  0  0  0
 14 13  1  0  0  0  0
 15 14  3  0  0  0  0
 16 15  1  0  0  0  0
 17 16  3  0  0  0  0
M  END
>  <cdx:fragmentId>
24

$$$$
