99850.cdx
  Mrv1902 05222410212D          

 16 16  0  0  0  0            999 V2000
   10.8367   -8.7958    0.0000 C   0  0  0  0  0  0  0  0  0  0  0  0
   10.2312   -8.2354    0.0000 C   0  0  0  0  0  0  0  0  0  0  0  0
    9.4432   -8.4795    0.0000 C   0  0  0  0  0  0  0  0  0  0  0  0
    8.6551   -8.7236    0.0000 C   0  0  0  0  0  0  0  0  0  0  0  0
   11.6247   -8.5517    0.0000 O   0  0  0  0  0  0  0  0  0  0  0  0
   10.4139   -7.4309    0.0000 O   0  0  0  0  0  0  0  0  0  0  0  0
    7.8670   -8.9677    0.0000 C   0  0  0  0  0  0  0  0  0  0  0  0
    7.6013   -9.7487    0.0000 C   0  0  0  0  0  0  0  0  0  0  0  0
    6.7764   -9.7373    0.0000 C   0  0  0  0  0  0  0  0  0  0  0  0
    6.5323   -8.9493    0.0000 C   0  0  0  0  0  0  0  0  0  0  0  0
    7.2064   -8.4736    0.0000 S   0  0  0  0  0  0  0  0  0  0  0  0
    5.7513   -8.6835    0.0000 C   0  0  0  0  0  0  0  0  0  0  0  0
    4.9702   -8.4178    0.0000 C   0  0  0  0  0  0  0  0  0  0  0  0
    4.1892   -8.1521    0.0000 C   0  0  0  0  0  0  0  0  0  0  0  0
    3.4082   -7.8863    0.0000 C   0  0  0  0  0  0  0  0  0  0  0  0
    2.6271   -7.6206    0.0000 C   0  0  0  0  0  0  0  0  0  0  0  0
  1  2  1  0  0  0  0
  2  3  1  0  0  0  0
  3  4  3  0  0  0  0
  1  5  1  0  0  0  0
  2  6  1  0  0  0  0
  7  8  2  0  0  0  0
  8  9  1  0  0  0  0
  9 10  2  0  0  0  0
 10 11  1  0  0  0  0
  7 11  1  0  0  0  0
 12 13  3  0  0  0  0
 13 14  1  0  0  0  0
 14 15  3  0  0  0  0
 15 16  1  0  0  0  0
 10 12  1  0  0  0  0
  4  7  1  0  0  0  0
M  END
>  <cdx:fragmentId>
17

$$$$
