99854.cdx
  Mrv1902 05222410222D          

 31 34  0  0  0  0            999 V2000
    8.8449   -9.9742    0.0000 O   0  0  0  0  0  0  0  0  0  0  0  0
    5.9870  -10.7992    0.0000 O   0  0  0  0  0  0  0  0  0  0  0  0
    4.5580   -8.3242    0.0000 O   0  0  0  0  0  0  0  0  0  0  0  0
    5.9870   -7.4992    0.0000 O   0  0  0  0  0  0  0  0  0  0  0  0
   10.9883   -7.0867    0.0000 O   0  0  0  0  0  0  0  0  0  0  0  0
    8.8449   -7.4992    0.0000 C   0  0  0  0  0  0  0  0  0  0  0  0
    9.5593   -7.0867    0.0000 C   0  0  0  0  0  0  0  0  0  0  0  0
   10.2738   -7.4992    0.0000 C   0  0  0  0  0  0  0  0  0  0  0  0
   10.2738   -8.3242    0.0000 C   0  0  0  0  0  0  0  0  0  0  0  0
    9.5593   -8.7367    0.0000 C   0  0  0  0  0  0  0  0  0  0  0  0
    8.8449   -8.3242    0.0000 C   0  0  0  0  0  0  0  0  0  0  0  0
    7.4159  -10.7992    0.0000 O   0  0  0  0  0  0  0  0  0  0  0  0
    7.4159   -8.3242    0.0000 O   0  0  0  0  0  0  0  0  0  0  0  0
    6.7014   -8.7367    0.0000 C   0  0  0  0  0  0  0  0  0  0  0  0
    5.9870   -8.3242    0.0000 C   0  0  0  0  0  0  0  0  0  0  0  0
    5.2725   -8.7367    0.0000 C   0  0  0  0  0  0  0  0  0  0  0  0
    5.2725   -9.5617    0.0000 C   0  0  0  0  0  0  0  0  0  0  0  0
    5.9870   -9.9742    0.0000 C   0  0  0  0  0  0  0  0  0  0  0  0
    6.7014   -9.5617    0.0000 C   0  0  0  0  0  0  0  0  0  0  0  0
    7.4159   -9.9742    0.0000 C   0  0  0  0  0  0  0  0  0  0  0  0
    8.1304   -9.5617    0.0000 C   0  0  0  0  0  0  0  0  0  0  0  0
    8.1304   -8.7367    0.0000 C   0  0  0  0  0  0  0  0  0  0  0  0
    4.5479   -5.8537    0.0000 C   0  0  2  0  0  0  0  0  0  0  0  0
    3.8339   -6.2669    0.0000 C   0  0  1  0  0  0  0  0  0  0  0  0
    3.8348   -7.0919    0.0000 C   0  0  0  0  0  0  0  0  0  0  0  0
    4.5497   -7.5036    0.0000 O   0  0  0  0  0  0  0  0  0  0  0  0
    5.2637   -7.0904    0.0000 C   0  0  1  0  0  0  0  0  0  0  0  0
    5.2628   -6.2654    0.0000 C   0  0  2  0  0  0  0  0  0  0  0  0
    3.1190   -5.8552    0.0000 O   0  0  0  0  0  0  0  0  0  0  0  0
    4.5470   -5.0287    0.0000 O   0  0  0  0  0  0  0  0  0  0  0  0
    5.9769   -5.8521    0.0000 O   0  0  0  0  0  0  0  0  0  0  0  0
 21  1  1  0  0  0  0
 18  2  1  0  0  0  0
 16  3  1  0  0  0  0
 15  4  1  0  0  0  0
 22 11  1  0  0  0  0
  8  5  1  0  0  0  0
 11  6  2  0  0  0  0
  7  6  1  0  0  0  0
  8  7  2  0  0  0  0
  9  8  1  0  0  0  0
 10  9  2  0  0  0  0
 11 10  1  0  0  0  0
 20 12  2  0  0  0  0
 22 13  1  0  0  0  0
 14 13  1  0  0  0  0
 19 14  2  0  0  0  0
 15 14  1  0  0  0  0
 16 15  2  0  0  0  0
 17 16  1  0  0  0  0
 18 17  2  0  0  0  0
 19 18  1  0  0  0  0
 20 19  1  0  0  0  0
 21 20  1  0  0  0  0
 22 21  2  0  0  0  0
 23 24  1  0  0  0  0
 24 25  1  0  0  0  0
 25 26  1  0  0  0  0
 26 27  1  0  0  0  0
 27 28  1  0  0  0  0
 28 23  1  0  0  0  0
 24 29  1  1  0  0  0
 23 30  1  1  0  0  0
 28 31  1  1  0  0  0
 27  4  1  1  0  0  0
M  END
>  <cdx:fragmentId>
5

$$$$
