99852.cdx
  Mrv1902 05222410202D          

 37 41  0  0  0  0            999 V2000
   10.1088   -8.4565    0.0000 C   0  0  0  0  0  0  0  0  0  0  0  0
    4.3930  -10.1065    0.0000 C   0  0  1  0  0  0  0  0  0  0  0  0
    4.3930   -9.2815    0.0000 C   0  0  2  0  0  0  0  0  0  0  0  0
    5.1075   -8.8690    0.0000 C   0  0  0  0  0  0  0  0  0  0  0  0
    5.1075  -10.5190    0.0000 C   0  0  2  0  0  0  0  0  0  0  0  0
    5.5200  -11.2335    0.0000 C   0  0  0  0  0  0  0  0  0  0  0  0
    4.6950  -11.2335    0.0000 C   0  0  0  0  0  0  0  0  0  0  0  0
    5.8220  -10.1065    0.0000 C   0  0  0  0  0  0  0  0  0  0  0  0
    6.5364  -10.5190    0.0000 C   0  0  0  0  0  0  0  0  0  0  0  0
    7.2509  -10.1065    0.0000 C   0  0  0  0  0  0  0  0  0  0  0  0
    7.2509   -9.2815    0.0000 C   0  0  1  0  0  0  0  0  0  0  0  0
    7.2509   -8.4565    0.0000 C   0  0  0  0  0  0  0  0  0  0  0  0
    7.9654   -8.8690    0.0000 C   0  0  2  0  0  0  0  0  0  0  0  0
    7.9654   -9.6940    0.0000 C   0  0  0  0  0  0  0  0  0  0  0  0
    8.6799   -9.2815    0.0000 C   0  0  0  0  0  0  0  0  0  0  0  0
    9.3943   -8.8690    0.0000 C   0  0  0  0  0  0  0  0  0  0  0  0
    9.3943   -8.0440    0.0000 C   0  0  2  0  0  0  0  0  0  0  0  0
   10.1088   -7.6315    0.0000 C   0  0  0  0  0  0  0  0  0  0  0  0
   10.1088   -6.8065    0.0000 C   0  0  0  0  0  0  0  0  0  0  0  0
    9.3943   -6.3940    0.0000 C   0  0  1  0  0  0  0  0  0  0  0  0
    9.3943   -5.5690    0.0000 C   0  0  0  0  0  0  0  0  0  0  0  0
    8.6799   -6.8065    0.0000 C   0  0  2  0  0  0  0  0  0  0  0  0
    7.9654   -6.3940    0.0000 C   0  0  0  0  0  0  0  0  0  0  0  0
    8.6799   -7.6315    0.0000 C   0  0  1  0  0  0  0  0  0  0  0  0
    8.6799   -8.4565    0.0000 H   0  0  0  0  0  0  0  0  0  0  0  0
    7.9654   -8.0440    0.0000 C   0  0  0  0  0  0  0  0  0  0  0  0
    7.2509   -7.6315    0.0000 C   0  0  0  0  0  0  0  0  0  0  0  0
    6.5364   -8.0440    0.0000 C   0  0  0  0  0  0  0  0  0  0  0  0
    6.5364   -8.8690    0.0000 C   0  0  2  0  0  0  0  0  0  0  0  0
    5.8220   -9.2815    0.0000 C   0  0  1  0  0  0  0  0  0  0  0  0
    5.8220   -8.4565    0.0000 C   0  0  0  0  0  0  0  0  0  0  0  0
   10.1088   -9.2815    0.0000 O   0  0  0  0  0  0  0  0  0  0  0  0
   10.8233   -8.0440    0.0000 O   0  0  0  0  0  0  0  0  0  0  0  0
    6.3450  -11.2335    0.0000 O   0  0  0  0  0  0  0  0  0  0  0  0
    3.6786   -8.8690    0.0000 O   0  0  0  0  0  0  0  0  0  0  0  0
    6.5364   -9.6940    0.0000 H   0  0  0  0  0  0  0  0  0  0  0  0
    3.6786  -10.5190    0.0000 O   0  0  0  0  0  0  0  0  0  0  0  0
  2  3  1  0  0  0  0
  3  4  1  0  0  0  0
  2  5  1  0  0  0  0
  5  6  1  6  0  0  0
  5  7  1  1  0  0  0
  5  8  1  0  0  0  0
  8  9  1  0  0  0  0
  9 10  1  0  0  0  0
 10 11  1  0  0  0  0
 11 12  1  1  0  0  0
 11 13  1  0  0  0  0
 13 14  1  6  0  0  0
 13 15  1  0  0  0  0
 15 16  1  0  0  0  0
 16 17  1  0  0  0  0
 17  1  1  1  0  0  0
 17 18  1  0  0  0  0
 18 19  1  0  0  0  0
 19 20  1  0  0  0  0
 20 21  1  6  0  0  0
 20 22  1  0  0  0  0
 22 23  1  1  0  0  0
 22 24  1  0  0  0  0
 24 25  1  1  0  0  0
 17 24  1  0  0  0  0
 24 26  1  0  0  0  0
 13 26  1  0  0  0  0
 26 27  2  0  0  0  0
 27 28  1  0  0  0  0
 28 29  1  0  0  0  0
 11 29  1  0  0  0  0
 29 30  1  0  0  0  0
  4 30  1  0  0  0  0
  8 30  1  0  0  0  0
 30 31  1  1  0  0  0
  1 32  2  0  0  0  0
  1 33  1  0  0  0  0
  6 34  1  0  0  0  0
  3 35  1  1  0  0  0
 29 36  1  6  0  0  0
  2 37  1  1  0  0  0
M  END
>  <cdx:fragmentId>
7

$$$$
