99851.cdx
  Mrv1902 05222410212D          

 38 42  0  0  0  0            999 V2000
   10.4388   -8.2090    0.0000 C   0  0  0  0  0  0  0  0  0  0  0  0
    4.7230   -9.8590    0.0000 C   0  0  1  0  0  0  0  0  0  0  0  0
    4.7230   -9.0340    0.0000 C   0  0  1  0  0  0  0  0  0  0  0  0
    5.4375   -8.6215    0.0000 C   0  0  0  0  0  0  0  0  0  0  0  0
    5.4375  -10.2715    0.0000 C   0  0  2  0  0  0  0  0  0  0  0  0
    5.8500  -10.9860    0.0000 C   0  0  0  0  0  0  0  0  0  0  0  0
    5.0250  -10.9860    0.0000 C   0  0  0  0  0  0  0  0  0  0  0  0
    6.1520   -9.8590    0.0000 C   0  0  0  0  0  0  0  0  0  0  0  0
    6.8664  -10.2715    0.0000 C   0  0  0  0  0  0  0  0  0  0  0  0
    7.5809   -9.8590    0.0000 C   0  0  0  0  0  0  0  0  0  0  0  0
    7.5809   -9.0340    0.0000 C   0  0  1  0  0  0  0  0  0  0  0  0
    7.5809   -8.2090    0.0000 C   0  0  0  0  0  0  0  0  0  0  0  0
    8.2954   -8.6215    0.0000 C   0  0  2  0  0  0  0  0  0  0  0  0
    8.2954   -9.4465    0.0000 C   0  0  0  0  0  0  0  0  0  0  0  0
    9.0099   -9.0340    0.0000 C   0  0  0  0  0  0  0  0  0  0  0  0
    9.7243   -8.6215    0.0000 C   0  0  0  0  0  0  0  0  0  0  0  0
    9.7243   -7.7965    0.0000 C   0  0  2  0  0  0  0  0  0  0  0  0
   10.4388   -7.3840    0.0000 C   0  0  0  0  0  0  0  0  0  0  0  0
   10.4388   -6.5590    0.0000 C   0  0  0  0  0  0  0  0  0  0  0  0
    9.7243   -6.1465    0.0000 C   0  0  1  0  0  0  0  0  0  0  0  0
    9.7243   -5.3215    0.0000 C   0  0  0  0  0  0  0  0  0  0  0  0
    9.0099   -6.5590    0.0000 C   0  0  2  0  0  0  0  0  0  0  0  0
    8.2954   -6.1465    0.0000 C   0  0  0  0  0  0  0  0  0  0  0  0
    9.0099   -7.3840    0.0000 C   0  0  1  0  0  0  0  0  0  0  0  0
    9.0099   -8.2090    0.0000 H   0  0  0  0  0  0  0  0  0  0  0  0
    8.2954   -7.7965    0.0000 C   0  0  0  0  0  0  0  0  0  0  0  0
    7.5809   -7.3840    0.0000 C   0  0  0  0  0  0  0  0  0  0  0  0
    6.8664   -7.7965    0.0000 C   0  0  0  0  0  0  0  0  0  0  0  0
    6.8664   -8.6215    0.0000 C   0  0  2  0  0  0  0  0  0  0  0  0
    6.1520   -9.0340    0.0000 C   0  0  1  0  0  0  0  0  0  0  0  0
    6.1520   -8.2090    0.0000 C   0  0  0  0  0  0  0  0  0  0  0  0
   10.4388   -9.0340    0.0000 O   0  0  0  0  0  0  0  0  0  0  0  0
   11.1533   -7.7965    0.0000 O   0  0  0  0  0  0  0  0  0  0  0  0
    4.2000  -10.9860    0.0000 O   0  0  0  0  0  0  0  0  0  0  0  0
    6.6750  -10.9860    0.0000 O   0  0  0  0  0  0  0  0  0  0  0  0
    4.0086   -8.6215    0.0000 O   0  0  0  0  0  0  0  0  0  0  0  0
    6.8664   -9.4465    0.0000 H   0  0  0  0  0  0  0  0  0  0  0  0
    4.0086  -10.2715    0.0000 O   0  0  0  0  0  0  0  0  0  0  0  0
  2  3  1  0  0  0  0
  3  4  1  0  0  0  0
  2  5  1  0  0  0  0
  5  6  1  6  0  0  0
  5  7  1  1  0  0  0
  5  8  1  0  0  0  0
  8  9  1  0  0  0  0
  9 10  1  0  0  0  0
 10 11  1  0  0  0  0
 11 12  1  1  0  0  0
 11 13  1  0  0  0  0
 13 14  1  6  0  0  0
 13 15  1  0  0  0  0
 15 16  1  0  0  0  0
 16 17  1  0  0  0  0
 17  1  1  1  0  0  0
 17 18  1  0  0  0  0
 18 19  1  0  0  0  0
 19 20  1  0  0  0  0
 20 21  1  6  0  0  0
 20 22  1  0  0  0  0
 22 23  1  1  0  0  0
 22 24  1  0  0  0  0
 24 25  1  1  0  0  0
 17 24  1  0  0  0  0
 24 26  1  0  0  0  0
 13 26  1  0  0  0  0
 26 27  2  0  0  0  0
 27 28  1  0  0  0  0
 28 29  1  0  0  0  0
 11 29  1  0  0  0  0
 29 30  1  0  0  0  0
  4 30  1  0  0  0  0
  8 30  1  0  0  0  0
 30 31  1  1  0  0  0
  1 32  2  0  0  0  0
  1 33  1  0  0  0  0
  7 34  1  0  0  0  0
  6 35  1  0  0  0  0
  3 36  1  6  0  0  0
 29 37  1  6  0  0  0
  2 38  1  1  0  0  0
M  END
>  <cdx:fragmentId>
7

$$$$
