99853.cdx
  Mrv1902 05222410212D          

 35 39  0  0  0  0            999 V2000
    5.0522   -8.9206    0.0000 C   0  0  0  0  0  0  0  0  0  0  0  0
    4.3378   -9.3331    0.0000 C   0  0  0  0  0  0  0  0  0  0  0  0
    4.3378  -10.1581    0.0000 C   0  0  1  0  0  0  0  0  0  0  0  0
    5.0522  -10.5706    0.0000 C   0  0  0  0  0  0  0  0  0  0  0  0
    5.7667  -10.1581    0.0000 C   0  0  2  0  0  0  0  0  0  0  0  0
    6.4812  -10.5706    0.0000 C   0  0  0  0  0  0  0  0  0  0  0  0
    7.1956  -10.1581    0.0000 C   0  0  0  0  0  0  0  0  0  0  0  0
    7.1956   -9.3331    0.0000 C   0  0  1  0  0  0  0  0  0  0  0  0
    7.9101   -8.9206    0.0000 C   0  0  2  0  0  0  0  0  0  0  0  0
    8.6246   -9.3331    0.0000 C   0  0  0  0  0  0  0  0  0  0  0  0
    9.3391   -8.9206    0.0000 C   0  0  0  0  0  0  0  0  0  0  0  0
    9.3391   -8.0956    0.0000 C   0  0  1  0  0  0  0  0  0  0  0  0
   10.0535   -7.6831    0.0000 C   0  0  0  0  0  0  0  0  0  0  0  0
   10.0535   -6.8581    0.0000 C   0  0  0  0  0  0  0  0  0  0  0  0
    9.3391   -6.4456    0.0000 C   0  0  2  0  0  0  0  0  0  0  0  0
    8.6246   -6.8581    0.0000 C   0  0  1  0  0  0  0  0  0  0  0  0
    8.6246   -7.6831    0.0000 C   0  0  1  0  0  0  0  0  0  0  0  0
    7.9101   -8.0956    0.0000 C   0  0  0  0  0  0  0  0  0  0  0  0
    7.1956   -7.6831    0.0000 C   0  0  0  0  0  0  0  0  0  0  0  0
    6.4812   -8.0956    0.0000 C   0  0  0  0  0  0  0  0  0  0  0  0
    6.4812   -8.9206    0.0000 C   0  0  2  0  0  0  0  0  0  0  0  0
    5.7667   -9.3331    0.0000 C   0  0  1  0  0  0  0  0  0  0  0  0
    3.6233  -10.5706    0.0000 O   0  0  0  0  0  0  0  0  0  0  0  0
    5.7667   -8.5081    0.0000 C   0  0  0  0  0  0  0  0  0  0  0  0
    7.9101   -6.4456    0.0000 C   0  0  0  0  0  0  0  0  0  0  0  0
    9.3391   -5.6206    0.0000 C   0  0  0  0  0  0  0  0  0  0  0  0
    7.9101   -9.7456    0.0000 C   0  0  0  0  0  0  0  0  0  0  0  0
    7.1956   -8.5081    0.0000 C   0  0  0  0  0  0  0  0  0  0  0  0
    5.4647  -11.2850    0.0000 C   0  0  0  0  0  0  0  0  0  0  0  0
    4.6397  -11.2850    0.0000 C   0  0  0  0  0  0  0  0  0  0  0  0
   10.0535   -8.5081    0.0000 C   0  0  0  0  0  0  0  0  0  0  0  0
   10.7680   -8.0956    0.0000 O   0  0  0  0  0  0  0  0  0  0  0  0
    5.7667  -10.9831    0.0000 H   0  0  0  0  0  0  0  0  0  0  0  0
    8.6246   -8.5081    0.0000 H   0  0  0  0  0  0  0  0  0  0  0  0
    6.4812   -9.7456    0.0000 H   0  0  0  0  0  0  0  0  0  0  0  0
  1  2  1  0  0  0  0
  2  3  1  0  0  0  0
  3  4  1  0  0  0  0
  4  5  1  0  0  0  0
  5  6  1  0  0  0  0
  6  7  1  0  0  0  0
  7  8  1  0  0  0  0
  8  9  1  0  0  0  0
  9 10  1  0  0  0  0
 10 11  1  0  0  0  0
 11 12  1  0  0  0  0
 12 13  1  0  0  0  0
 13 14  1  0  0  0  0
 14 15  1  0  0  0  0
 15 16  1  0  0  0  0
 16 17  1  0  0  0  0
 12 17  1  0  0  0  0
 17 18  1  0  0  0  0
  9 18  1  0  0  0  0
 18 19  2  0  0  0  0
 19 20  1  0  0  0  0
 20 21  1  0  0  0  0
  8 21  1  0  0  0  0
 21 22  1  0  0  0  0
  5 22  1  0  0  0  0
  1 22  1  0  0  0  0
  3 23  1  1  0  0  0
 22 24  1  1  0  0  0
 16 25  1  1  0  0  0
 15 26  1  6  0  0  0
  9 27  1  6  0  0  0
  8 28  1  1  0  0  0
  4 29  1  0  0  0  0
  4 30  1  0  0  0  0
 31 32  1  0  0  0  0
 12 31  1  1  0  0  0
  5 33  1  6  0  0  0
 17 34  1  1  0  0  0
 21 35  1  6  0  0  0
M  END
>  <cdx:fragmentId>
5

$$$$
