99866.cdx
  Mrv1902 05222410232D          

 53 59  0  0  0  0            999 V2000
    3.2635  -11.5360    0.0000 O   0  0  0  0  0  0  0  0  0  0  0  0
    6.2383  -11.6805    0.0000 O   0  0  0  0  0  0  0  0  0  0  0  0
    5.4133  -11.6714    0.0000 C   0  0  0  0  0  0  0  0  0  0  0  0
    1.3323  -10.3515    0.0000 C   0  0  0  0  0  0  0  0  0  0  0  0
    2.9922   -8.4245    0.0000 C   0  0  0  0  0  0  0  0  0  0  0  0
    2.4116  -11.7856    0.0000 O   0  0  0  0  0  0  0  0  0  0  0  0
    3.7995   -8.5945    0.0000 C   0  0  2  0  0  0  0  0  0  0  0  0
    4.3504   -7.9804    0.0000 C   0  0  2  0  0  0  0  0  0  0  0  0
    5.1577   -8.1504    0.0000 C   0  0  1  0  0  0  0  0  0  0  0  0
    5.4141   -8.9346    0.0000 C   0  0  1  0  0  0  0  0  0  0  0  0
    3.4335  -10.7287    0.0000 C   0  0  2  0  0  0  0  0  0  0  0  0
    4.0871  -11.2322    0.0000 C   0  0  1  0  0  0  0  0  0  0  0  0
    4.8882  -11.0351    0.0000 C   0  0  1  0  0  0  0  0  0  0  0  0
    5.2336  -10.2859    0.0000 C   0  0  2  0  0  0  0  0  0  0  0  0
    4.8632   -9.5487    0.0000 C   0  0  2  0  0  0  0  0  0  0  0  0
    4.0559   -9.3787    0.0000 C   0  0  1  0  0  0  0  0  0  0  0  0
    3.4196   -9.9038    0.0000 C   0  0  2  0  0  0  0  0  0  0  0  0
    2.6308   -9.6621    0.0000 C   0  0  0  0  0  0  0  0  0  0  0  0
    2.1572  -10.3376    0.0000 C   0  0  0  0  0  0  0  0  0  0  0  0
    2.6533  -10.9968    0.0000 C   0  0  0  0  0  0  0  0  0  0  0  0
    3.9170  -12.0395    0.0000 O   0  0  0  0  0  0  0  0  0  0  0  0
    5.6881  -10.8969    0.0000 O   0  0  0  0  0  0  0  0  0  0  0  0
    4.6015   -8.7992    0.0000 O   0  0  0  0  0  0  0  0  0  0  0  0
    3.4058   -9.0789    0.0000 H   0  0  0  0  0  0  0  0  0  0  0  0
    5.6705   -9.7187    0.0000 H   0  0  0  0  0  0  0  0  0  0  0  0
    6.2390   -8.9437    0.0000 O   0  0  0  0  0  0  0  0  0  0  0  0
    6.4924   -8.1652    0.0000 C   0  0  0  0  0  0  0  0  0  0  0  0
    5.8241   -7.6815    0.0000 O   0  0  0  0  0  0  0  0  0  0  0  0
    7.2768   -7.9097    0.0000 C   0  0  0  0  0  0  0  0  0  0  0  0
    4.0940   -7.1963    0.0000 O   0  0  0  0  0  0  0  0  0  0  0  0
    7.8903   -8.4614    0.0000 C   0  0  0  0  0  0  0  0  0  0  0  0
    7.4478   -7.1027    0.0000 O   0  0  0  0  0  0  0  0  0  0  0  0
    8.6748   -8.2059    0.0000 C   0  0  0  0  0  0  0  0  0  0  0  0
    9.2882   -8.7575    0.0000 C   0  0  0  0  0  0  0  0  0  0  0  0
   10.0727   -8.5021    0.0000 C   0  0  0  0  0  0  0  0  0  0  0  0
   10.6861   -9.0537    0.0000 C   0  0  0  0  0  0  0  0  0  0  0  0
   11.4706   -8.7983    0.0000 C   0  0  0  0  0  0  0  0  0  0  0  0
   12.0840   -9.3499    0.0000 C   0  0  0  0  0  0  0  0  0  0  0  0
   12.8685   -9.0944    0.0000 C   0  0  0  0  0  0  0  0  0  0  0  0
   13.4819   -9.6461    0.0000 C   0  0  0  0  0  0  0  0  0  0  0  0
    3.2867   -7.0262    0.0000 C   0  0  0  0  0  0  0  0  0  0  0  0
    2.7358   -7.6403    0.0000 O   0  0  0  0  0  0  0  0  0  0  0  0
    3.0303   -6.2421    0.0000 C   0  0  0  0  0  0  0  0  0  0  0  0
    2.2231   -6.0721    0.0000 C   0  0  0  0  0  0  0  0  0  0  0  0
    1.9667   -5.2879    0.0000 C   0  0  0  0  0  0  0  0  0  0  0  0
    2.5176   -4.6738    0.0000 C   0  0  0  0  0  0  0  0  0  0  0  0
    2.2612   -3.8896    0.0000 C   0  0  0  0  0  0  0  0  0  0  0  0
    1.4539   -3.7196    0.0000 C   0  0  0  0  0  0  0  0  0  0  0  0
    0.9030   -4.3337    0.0000 C   0  0  0  0  0  0  0  0  0  0  0  0
    1.1594   -5.1179    0.0000 C   0  0  0  0  0  0  0  0  0  0  0  0
    5.1577   -7.3254    0.0000 C   0  0  0  0  0  0  0  0  0  0  0  0
    4.4432   -6.9129    0.0000 C   0  0  0  0  0  0  0  0  0  0  0  0
    5.8722   -6.9129    0.0000 C   0  0  0  0  0  0  0  0  0  0  0  0
 11  1  1  1  0  0  0
 13  3  1  0  0  0  0
  3  2  1  0  0  0  0
 19  4  1  0  0  0  0
  7  5  1  6  0  0  0
 20  6  2  0  0  0  0
 10 15  1  0  0  0  0
  7 16  1  0  0  0  0
  8  7  1  0  0  0  0
  9  8  1  0  0  0  0
 10  9  1  0  0  0  0
 17 11  1  0  0  0  0
 20 11  1  0  0  0  0
 12 11  1  0  0  0  0
 13 12  1  0  0  0  0
 14 13  1  0  0  0  0
 15 14  1  0  0  0  0
 16 15  1  0  0  0  0
 17 16  1  0  0  0  0
 18 17  1  0  0  0  0
 19 18  2  0  0  0  0
 20 19  1  0  0  0  0
 12 21  1  1  0  0  0
 14 22  1  6  0  0  0
 13 22  1  6  0  0  0
 16 23  1  6  0  0  0
 17 24  1  6  0  0  0
 15 25  1  1  0  0  0
 10 26  1  6  0  0  0
 26 27  1  0  0  0  0
 27 28  1  0  0  0  0
  9 28  1  6  0  0  0
 23 27  1  0  0  0  0
 27 29  1  0  0  0  0
  8 30  1  1  0  0  0
 29 31  1  0  0  0  0
 29 32  2  0  0  0  0
 31 33  2  0  0  0  0
 33 34  1  0  0  0  0
 34 35  2  0  0  0  0
 35 36  1  0  0  0  0
 36 37  1  0  0  0  0
 37 38  1  0  0  0  0
 38 39  1  0  0  0  0
 39 40  1  0  0  0  0
 30 41  1  0  0  0  0
 41 42  2  0  0  0  0
 41 43  1  0  0  0  0
 43 44  2  0  0  0  0
 44 45  1  0  0  0  0
 45 46  2  0  0  0  0
 46 47  1  0  0  0  0
 47 48  2  0  0  0  0
 48 49  1  0  0  0  0
 49 50  2  0  0  0  0
 50 45  1  0  0  0  0
  9 51  1  0  0  0  0
 51 52  1  0  0  0  0
 51 53  2  0  0  0  0
M  END
>  <cdx:fragmentId>
5

$$$$
