99863.cdx
  Mrv1902 05222410252D          

 43 48  0  0  0  0            999 V2000
    2.9610  -10.3535    0.0000 O   0  0  0  0  0  0  0  0  0  0  0  0
    5.9358  -10.4980    0.0000 O   0  0  0  0  0  0  0  0  0  0  0  0
    5.1108  -10.4889    0.0000 C   0  0  0  0  0  0  0  0  0  0  0  0
    1.0298   -9.1690    0.0000 C   0  0  0  0  0  0  0  0  0  0  0  0
    2.6897   -7.2420    0.0000 C   0  0  0  0  0  0  0  0  0  0  0  0
    2.1091  -10.6031    0.0000 O   0  0  0  0  0  0  0  0  0  0  0  0
    3.4970   -7.4120    0.0000 C   0  0  2  0  0  0  0  0  0  0  0  0
    4.0479   -6.7979    0.0000 C   0  0  2  0  0  0  0  0  0  0  0  0
    4.8552   -6.9679    0.0000 C   0  0  1  0  0  0  0  0  0  0  0  0
    5.1116   -7.7521    0.0000 C   0  0  1  0  0  0  0  0  0  0  0  0
    3.1310   -9.5462    0.0000 C   0  0  2  0  0  0  0  0  0  0  0  0
    3.7846  -10.0497    0.0000 C   0  0  1  0  0  0  0  0  0  0  0  0
    4.5857   -9.8526    0.0000 C   0  0  1  0  0  0  0  0  0  0  0  0
    4.9311   -9.1034    0.0000 C   0  0  2  0  0  0  0  0  0  0  0  0
    4.5607   -8.3662    0.0000 C   0  0  2  0  0  0  0  0  0  0  0  0
    3.7534   -8.1962    0.0000 C   0  0  1  0  0  0  0  0  0  0  0  0
    3.1171   -8.7213    0.0000 C   0  0  2  0  0  0  0  0  0  0  0  0
    2.3283   -8.4796    0.0000 C   0  0  0  0  0  0  0  0  0  0  0  0
    1.8547   -9.1551    0.0000 C   0  0  0  0  0  0  0  0  0  0  0  0
    2.3508   -9.8143    0.0000 C   0  0  0  0  0  0  0  0  0  0  0  0
    3.6145  -10.8570    0.0000 O   0  0  0  0  0  0  0  0  0  0  0  0
    5.3856   -9.7144    0.0000 O   0  0  0  0  0  0  0  0  0  0  0  0
    4.2990   -7.6167    0.0000 O   0  0  0  0  0  0  0  0  0  0  0  0
    3.1033   -7.8964    0.0000 H   0  0  0  0  0  0  0  0  0  0  0  0
    5.3680   -8.5362    0.0000 H   0  0  0  0  0  0  0  0  0  0  0  0
    5.9365   -7.7612    0.0000 O   0  0  0  0  0  0  0  0  0  0  0  0
    6.1899   -6.9827    0.0000 C   0  0  0  0  0  0  0  0  0  0  0  0
    5.5216   -6.4990    0.0000 O   0  0  0  0  0  0  0  0  0  0  0  0
    6.9743   -6.7272    0.0000 C   0  0  0  0  0  0  0  0  0  0  0  0
    3.7915   -6.0138    0.0000 O   0  0  0  0  0  0  0  0  0  0  0  0
    7.5878   -7.2789    0.0000 C   0  0  0  0  0  0  0  0  0  0  0  0
    7.1453   -5.9202    0.0000 O   0  0  0  0  0  0  0  0  0  0  0  0
    8.3723   -7.0234    0.0000 C   0  0  0  0  0  0  0  0  0  0  0  0
    8.9857   -7.5750    0.0000 C   0  0  0  0  0  0  0  0  0  0  0  0
    9.7702   -7.3196    0.0000 C   0  0  0  0  0  0  0  0  0  0  0  0
   10.3836   -7.8712    0.0000 C   0  0  0  0  0  0  0  0  0  0  0  0
   11.1681   -7.6158    0.0000 C   0  0  0  0  0  0  0  0  0  0  0  0
   11.7815   -8.1674    0.0000 C   0  0  0  0  0  0  0  0  0  0  0  0
   12.5660   -7.9119    0.0000 C   0  0  0  0  0  0  0  0  0  0  0  0
   13.1794   -8.4636    0.0000 C   0  0  0  0  0  0  0  0  0  0  0  0
    4.8552   -6.1429    0.0000 C   0  0  0  0  0  0  0  0  0  0  0  0
    4.1407   -5.7304    0.0000 C   0  0  0  0  0  0  0  0  0  0  0  0
    5.5697   -5.7304    0.0000 C   0  0  0  0  0  0  0  0  0  0  0  0
 11  1  1  1  0  0  0
 13  3  1  0  0  0  0
  3  2  1  0  0  0  0
 19  4  1  0  0  0  0
  7  5  1  6  0  0  0
 20  6  2  0  0  0  0
 10 15  1  0  0  0  0
  7 16  1  0  0  0  0
  8  7  1  0  0  0  0
  9  8  1  0  0  0  0
 10  9  1  0  0  0  0
 17 11  1  0  0  0  0
 20 11  1  0  0  0  0
 12 11  1  0  0  0  0
 13 12  1  0  0  0  0
 14 13  1  0  0  0  0
 15 14  1  0  0  0  0
 16 15  1  0  0  0  0
 17 16  1  0  0  0  0
 18 17  1  0  0  0  0
 19 18  2  0  0  0  0
 20 19  1  0  0  0  0
 12 21  1  1  0  0  0
 14 22  1  6  0  0  0
 13 22  1  6  0  0  0
 16 23  1  6  0  0  0
 17 24  1  6  0  0  0
 15 25  1  1  0  0  0
 10 26  1  6  0  0  0
 26 27  1  0  0  0  0
 27 28  1  0  0  0  0
  9 28  1  6  0  0  0
 23 27  1  0  0  0  0
 27 29  1  0  0  0  0
  8 30  1  1  0  0  0
 29 31  1  0  0  0  0
 29 32  2  0  0  0  0
 31 33  2  0  0  0  0
 33 34  1  0  0  0  0
 34 35  2  0  0  0  0
 35 36  1  0  0  0  0
 36 37  2  0  0  0  0
 37 38  1  0  0  0  0
 38 39  1  0  0  0  0
 39 40  1  0  0  0  0
  9 41  1  0  0  0  0
 41 42  1  0  0  0  0
 41 43  2  0  0  0  0
M  END
>  <cdx:fragmentId>
5

$$$$
