99864.cdx
  Mrv1902 05222410242D          

 33 36  0  0  0  0            999 V2000
    6.3970   -5.6100    0.0000 C   0  0  0  0  0  0  0  0  0  0  0  0
    6.3970   -6.4350    0.0000 C   0  0  0  0  0  0  0  0  0  0  0  0
    7.1115   -6.8475    0.0000 C   0  0  0  0  0  0  0  0  0  0  0  0
    7.8260   -6.4350    0.0000 C   0  0  0  0  0  0  0  0  0  0  0  0
    7.8260   -5.6100    0.0000 C   0  0  0  0  0  0  0  0  0  0  0  0
    7.1115   -5.1975    0.0000 C   0  0  0  0  0  0  0  0  0  0  0  0
    8.5404   -6.8475    0.0000 C   0  0  0  0  0  0  0  0  0  0  0  0
    9.2549   -6.4350    0.0000 C   0  0  0  0  0  0  0  0  0  0  0  0
    9.2549   -5.6100    0.0000 C   0  0  0  0  0  0  0  0  0  0  0  0
    8.5404   -5.1975    0.0000 O   0  0  0  0  0  0  0  0  0  0  0  0
    9.9694   -6.8475    0.0000 C   0  0  0  0  0  0  0  0  0  0  0  0
   10.6839   -6.4350    0.0000 C   0  0  0  0  0  0  0  0  0  0  0  0
    9.9694   -7.6725    0.0000 C   0  0  0  0  0  0  0  0  0  0  0  0
   10.6839   -8.0850    0.0000 C   0  0  0  0  0  0  0  0  0  0  0  0
   11.3983   -7.6725    0.0000 C   0  0  0  0  0  0  0  0  0  0  0  0
   11.3983   -6.8475    0.0000 C   0  0  0  0  0  0  0  0  0  0  0  0
    5.6826   -5.1975    0.0000 O   0  0  0  0  0  0  0  0  0  0  0  0
    8.5404   -7.6725    0.0000 O   0  0  0  0  0  0  0  0  0  0  0  0
   12.1128   -8.0850    0.0000 O   0  0  0  0  0  0  0  0  0  0  0  0
   12.1128   -6.4350    0.0000 O   0  0  0  0  0  0  0  0  0  0  0  0
    3.5302   -5.6100    0.0000 C   0  0  2  0  0  0  0  0  0  0  0  0
    3.5302   -6.4350    0.0000 C   0  0  2  0  0  0  0  0  0  0  0  0
    4.2446   -6.8475    0.0000 C   0  0  1  0  0  0  0  0  0  0  0  0
    4.9591   -6.4350    0.0000 C   0  0  2  0  0  0  0  0  0  0  0  0
    4.9591   -5.6100    0.0000 C   0  0  1  0  0  0  0  0  0  0  0  0
    4.2446   -5.1975    0.0000 O   0  0  0  0  0  0  0  0  0  0  0  0
    2.8157   -5.1975    0.0000 C   0  0  0  0  0  0  0  0  0  0  0  0
    4.2446   -7.6725    0.0000 O   0  0  0  0  0  0  0  0  0  0  0  0
    2.1012   -5.6100    0.0000 O   0  0  0  0  0  0  0  0  0  0  0  0
    5.6736   -6.8475    0.0000 O   0  0  0  0  0  0  0  0  0  0  0  0
    2.8157   -6.8475    0.0000 O   0  0  0  0  0  0  0  0  0  0  0  0
   12.8273   -7.6725    0.0000 C   0  0  0  0  0  0  0  0  0  0  0  0
    2.8157   -4.3725    0.0000 O   0  0  0  0  0  0  0  0  0  0  0  0
  1  2  2  0  0  0  0
  2  3  1  0  0  0  0
  3  4  2  0  0  0  0
  4  5  1  0  0  0  0
  5  6  2  0  0  0  0
  6  1  1  0  0  0  0
  4  7  1  0  0  0  0
  7  8  1  0  0  0  0
  8  9  2  0  0  0  0
  9 10  1  0  0  0  0
 10  5  1  0  0  0  0
  8 11  1  0  0  0  0
 11 12  1  0  0  0  0
 11 13  2  0  0  0  0
 13 14  1  0  0  0  0
 14 15  2  0  0  0  0
 15 16  1  0  0  0  0
 16 12  2  0  0  0  0
  1 17  1  0  0  0  0
  7 18  2  0  0  0  0
 15 19  1  0  0  0  0
 16 20  1  0  0  0  0
 21 22  1  0  0  0  0
 22 23  1  0  0  0  0
 23 24  1  0  0  0  0
 24 25  1  0  0  0  0
 25 26  1  0  0  0  0
 26 21  1  0  0  0  0
 21 27  1  1  0  0  0
 23 28  1  1  0  0  0
 27 29  1  0  0  0  0
 24 30  1  6  0  0  0
 22 31  1  6  0  0  0
 25 17  1  1  0  0  0
 19 32  1  0  0  0  0
 27 33  2  0  0  0  0
M  END
>  <cdx:fragmentId>
5

$$$$
