99860.cdx
  Mrv1902 05222410252D          

 76 84  0  0  0  0            999 V2000
   19.6820   -5.3900    0.0000 C   0  0  0  0  0  0  0  0  0  0  0  0
   20.3965   -4.9775    0.0000 C   0  0  0  0  0  0  0  0  0  0  0  0
   21.1110   -5.3900    0.0000 C   0  0  0  0  0  0  0  0  0  0  0  0
   21.1110   -6.2150    0.0000 C   0  0  0  0  0  0  0  0  0  0  0  0
   20.3965   -6.6275    0.0000 C   0  0  2  0  0  0  0  0  0  0  0  0
   20.3965   -7.4525    0.0000 C   0  0  0  0  0  0  0  0  0  0  0  0
   19.6820   -7.8650    0.0000 C   0  0  0  0  0  0  0  0  0  0  0  0
   18.9675   -7.4525    0.0000 C   0  0  1  0  0  0  0  0  0  0  0  0
   18.2531   -7.8650    0.0000 C   0  0  2  0  0  0  0  0  0  0  0  0
   18.2531   -8.6900    0.0000 C   0  0  0  0  0  0  0  0  0  0  0  0
   17.5386   -9.1025    0.0000 C   0  0  0  0  0  0  0  0  0  0  0  0
   16.8241   -8.6900    0.0000 C   0  0  1  0  0  0  0  0  0  0  0  0
   16.1097   -9.1025    0.0000 C   0  0  1  0  0  0  0  0  0  0  0  0
   15.3952   -8.6900    0.0000 C   0  0  2  0  0  0  0  0  0  0  0  0
   15.3952   -7.8650    0.0000 C   0  0  0  0  0  0  0  0  0  0  0  0
   16.1097   -7.4525    0.0000 C   0  0  0  0  0  0  0  0  0  0  0  0
   16.8241   -7.8650    0.0000 C   0  0  2  0  0  0  0  0  0  0  0  0
   17.5386   -7.4525    0.0000 C   0  0  1  0  0  0  0  0  0  0  0  0
   17.5386   -6.6275    0.0000 C   0  0  0  0  0  0  0  0  0  0  0  0
   18.2531   -6.2150    0.0000 C   0  0  0  0  0  0  0  0  0  0  0  0
   18.9675   -6.6275    0.0000 C   0  0  0  0  0  0  0  0  0  0  0  0
   19.6820   -6.2150    0.0000 C   0  0  2  0  0  0  0  0  0  0  0  0
   21.1110   -7.0400    0.0000 C   0  0  0  0  0  0  0  0  0  0  0  0
   21.1110   -7.8650    0.0000 O   0  0  0  0  0  0  0  0  0  0  0  0
   16.5222   -9.8169    0.0000 C   0  0  0  0  0  0  0  0  0  0  0  0
   15.6972   -9.8169    0.0000 C   0  0  0  0  0  0  0  0  0  0  0  0
   19.9840   -4.2630    0.0000 C   0  0  0  0  0  0  0  0  0  0  0  0
   20.8090   -4.2630    0.0000 C   0  0  0  0  0  0  0  0  0  0  0  0
   14.6807   -9.1025    0.0000 O   0  0  0  0  0  0  0  0  0  0  0  0
   13.9662   -7.8650    0.0000 O   0  0  0  0  0  0  0  0  0  0  0  0
   13.9662   -8.6900    0.0000 C   0  0  2  0  0  0  0  0  0  0  0  0
   13.2518   -9.1025    0.0000 C   0  0  1  0  0  0  0  0  0  0  0  0
   12.5373   -8.6900    0.0000 C   0  0  2  0  0  0  0  0  0  0  0  0
   12.5373   -7.8650    0.0000 C   0  0  2  0  0  0  0  0  0  0  0  0
   13.2518   -7.4525    0.0000 C   0  0  0  0  0  0  0  0  0  0  0  0
   11.8228   -7.4525    0.0000 O   0  0  0  0  0  0  0  0  0  0  0  0
   11.8228   -9.1025    0.0000 O   0  0  0  0  0  0  0  0  0  0  0  0
   13.2518   -9.9275    0.0000 O   0  0  0  0  0  0  0  0  0  0  0  0
   11.8228   -9.9275    0.0000 O   0  0  0  0  0  0  0  0  0  0  0  0
   12.5373  -10.3400    0.0000 C   0  0  2  0  0  0  0  0  0  0  0  0
   12.5373  -11.1650    0.0000 C   0  0  1  0  0  0  0  0  0  0  0  0
   11.8228  -11.5775    0.0000 C   0  0  1  0  0  0  0  0  0  0  0  0
   11.1084  -11.1650    0.0000 C   0  0  2  0  0  0  0  0  0  0  0  0
   11.1084  -10.3400    0.0000 C   0  0  2  0  0  0  0  0  0  0  0  0
   10.3939   -9.9275    0.0000 C   0  0  0  0  0  0  0  0  0  0  0  0
   10.3939  -11.5775    0.0000 O   0  0  0  0  0  0  0  0  0  0  0  0
   13.2518  -11.5775    0.0000 O   0  0  0  0  0  0  0  0  0  0  0  0
    8.9566  -14.0354    0.0000 O   0  0  0  0  0  0  0  0  0  0  0  0
    8.2557  -12.7901    0.0000 O   0  0  0  0  0  0  0  0  0  0  0  0
    8.2467  -13.6151    0.0000 C   0  0  2  0  0  0  0  0  0  0  0  0
    7.5277  -14.0198    0.0000 C   0  0  1  0  0  0  0  0  0  0  0  0
    6.8178  -13.5995    0.0000 C   0  0  2  0  0  0  0  0  0  0  0  0
    6.8268  -12.7746    0.0000 C   0  0  1  0  0  0  0  0  0  0  0  0
    7.5457  -12.3699    0.0000 C   0  0  1  0  0  0  0  0  0  0  0  0
    7.5547  -11.5449    0.0000 C   0  0  0  0  0  0  0  0  0  0  0  0
    6.8403  -11.1324    0.0000 O   0  0  0  0  0  0  0  0  0  0  0  0
    6.0989  -14.0042    0.0000 O   0  0  0  0  0  0  0  0  0  0  0  0
    7.5187  -14.8447    0.0000 O   0  0  0  0  0  0  0  0  0  0  0  0
    6.1169  -12.3543    0.0000 O   0  0  0  0  0  0  0  0  0  0  0  0
   16.8241   -9.5150    0.0000 H   0  0  0  0  0  0  0  0  0  0  0  0
   19.6820   -7.0400    0.0000 H   0  0  0  0  0  0  0  0  0  0  0  0
   11.8228  -14.0525    0.0000 O   0  0  0  0  0  0  0  0  0  0  0  0
    9.6794  -12.8150    0.0000 C   0  0  0  0  0  0  0  0  0  0  0  0
    9.6794  -13.6400    0.0000 C   0  0  2  0  0  0  0  0  0  0  0  0
   10.3939  -14.0525    0.0000 C   0  0  2  0  0  0  0  0  0  0  0  0
   11.1084  -13.6400    0.0000 C   0  0  2  0  0  0  0  0  0  0  0  0
   11.1084  -12.8150    0.0000 C   0  0  1  0  0  0  0  0  0  0  0  0
   10.3939  -12.4025    0.0000 O   0  0  0  0  0  0  0  0  0  0  0  0
   11.8228  -12.4025    0.0000 O   0  0  0  0  0  0  0  0  0  0  0  0
   21.8254   -6.6275    0.0000 O   0  0  0  0  0  0  0  0  0  0  0  0
   16.8241   -7.0400    0.0000 C   0  0  0  0  0  0  0  0  0  0  0  0
   18.2531   -7.0400    0.0000 C   0  0  0  0  0  0  0  0  0  0  0  0
   18.9675   -8.2775    0.0000 C   0  0  0  0  0  0  0  0  0  0  0  0
   17.5386   -8.2775    0.0000 H   0  0  0  0  0  0  0  0  0  0  0  0
   10.3939  -14.8775    0.0000 O   0  0  0  0  0  0  0  0  0  0  0  0
   16.1097  -10.5314    0.0000 O   0  0  0  0  0  0  0  0  0  0  0  0
 67 69  1  1  0  0  0
 49 50  1  0  0  0  0
 50 51  1  0  0  0  0
 66 62  1  6  0  0  0
 68 63  1  0  0  0  0
 64 63  1  0  0  0  0
 65 64  1  0  0  0  0
  1  2  1  0  0  0  0
  2  3  1  0  0  0  0
  3  4  1  0  0  0  0
  4  5  1  0  0  0  0
  5  6  1  0  0  0  0
  6  7  1  0  0  0  0
  7  8  1  0  0  0  0
  8  9  1  0  0  0  0
  9 10  1  0  0  0  0
 10 11  1  0  0  0  0
 11 12  1  0  0  0  0
 12 13  1  0  0  0  0
 13 14  1  0  0  0  0
 14 15  1  0  0  0  0
 15 16  1  0  0  0  0
 16 17  1  0  0  0  0
 12 17  1  0  0  0  0
 17 18  1  0  0  0  0
  9 18  1  0  0  0  0
 18 19  1  0  0  0  0
 19 20  1  0  0  0  0
 20 21  2  0  0  0  0
  8 21  1  0  0  0  0
 21 22  1  0  0  0  0
  5 22  1  0  0  0  0
  1 22  1  0  0  0  0
 23 24  2  0  0  0  0
 23 70  1  0  0  0  0
  5 23  1  1  0  0  0
 13 25  1  0  0  0  0
 13 26  1  1  0  0  0
  2 27  1  0  0  0  0
  2 28  1  0  0  0  0
 30 31  1  0  0  0  0
 31 32  1  0  0  0  0
 32 33  1  0  0  0  0
 33 34  1  0  0  0  0
 34 35  1  0  0  0  0
 30 35  1  0  0  0  0
 34 36  1  1  0  0  0
 33 37  1  1  0  0  0
 39 40  1  0  0  0  0
 40 41  1  0  0  0  0
 41 42  1  0  0  0  0
 42 43  1  0  0  0  0
 43 44  1  0  0  0  0
 39 44  1  0  0  0  0
 44 45  1  6  0  0  0
 43 46  1  1  0  0  0
 41 47  1  6  0  0  0
 66 65  1  0  0  0  0
 67 66  1  0  0  0  0
 68 67  1  0  0  0  0
 51 52  1  0  0  0  0
 52 53  1  0  0  0  0
 53 54  1  0  0  0  0
 49 54  1  0  0  0  0
 55 56  1  0  0  0  0
 54 55  1  1  0  0  0
 52 57  1  1  0  0  0
 51 58  1  6  0  0  0
 53 59  1  6  0  0  0
 50 48  1  1  0  0  0
 42 69  1  6  0  0  0
 40 38  1  1  0  0  0
 32 38  1  6  0  0  0
 31 29  1  1  0  0  0
 14 29  1  1  0  0  0
 12 60  1  6  0  0  0
 22 61  1  1  0  0  0
 17 71  1  1  0  0  0
  9 72  1  1  0  0  0
  8 73  1  6  0  0  0
 18 74  1  6  0  0  0
 65 75  1  6  0  0  0
 64 48  1  6  0  0  0
 25 76  1  0  0  0  0
M  END
>  <cdx:groupId>
181687

>  <cdx:fragmentId>
181457

$$$$
