99872.cdx
  Mrv1902 05222410232D          

 11 11  0  0  0  0            999 V2000
    6.0274   -7.2875    0.0000 C   0  0  0  0  0  0  0  0  0  0  0  0
    6.0274   -8.1125    0.0000 C   0  0  0  0  0  0  0  0  0  0  0  0
    6.7419   -8.5250    0.0000 C   0  0  1  0  0  0  0  0  0  0  0  0
    7.4564   -8.1125    0.0000 C   0  0  0  0  0  0  0  0  0  0  0  0
    7.4564   -7.2875    0.0000 C   0  0  0  0  0  0  0  0  0  0  0  0
    6.7419   -6.8750    0.0000 C   0  0  1  0  0  0  0  0  0  0  0  0
    5.3130   -6.8750    0.0000 O   0  0  0  0  0  0  0  0  0  0  0  0
    6.7419   -6.0500    0.0000 C   0  0  0  0  0  0  0  0  0  0  0  0
    6.0274   -5.6375    0.0000 C   0  0  0  0  0  0  0  0  0  0  0  0
    7.4564   -5.6375    0.0000 C   0  0  0  0  0  0  0  0  0  0  0  0
    6.7419   -9.3500    0.0000 C   0  0  0  0  0  0  0  0  0  0  0  0
  1  2  1  0  0  0  0
  2  3  1  0  0  0  0
  3  4  1  0  0  0  0
  4  5  1  0  0  0  0
  5  6  1  0  0  0  0
  6  1  1  0  0  0  0
  1  7  2  0  0  0  0
  6  8  1  6  0  0  0
  8  9  1  0  0  0  0
  8 10  1  0  0  0  0
  3 11  1  1  0  0  0
M  END
>  <cdx:fragmentId>
5

$$$$
