99874.cdx
  Mrv1902 05222410252D          

 19 20  0  0  0  0            999 V2000
    6.8352   -9.3268    0.0000 H   0  0  0  0  0  0  0  0  0  0  0  0
    6.8289   -6.8783    0.0000 H   0  0  0  0  0  0  0  0  0  0  0  0
    9.6116   -8.0953    0.0000 C   0  0  0  0  0  0  0  0  0  0  0  0
    6.8415  -10.2636    0.0000 C   0  0  0  0  0  0  0  0  0  0  0  0
    5.9360   -6.6528    0.0000 C   0  0  0  0  0  0  0  0  0  0  0  0
    4.8848   -8.1075    0.0000 O   0  0  0  0  0  0  0  0  0  0  0  0
    7.6268   -9.0273    0.0000 C   0  0  0  0  0  0  0  0  0  0  0  0
    7.5549   -9.8492    0.0000 C   0  0  0  0  0  0  0  0  0  0  0  0
    8.3144  -10.1715    0.0000 C   0  0  0  0  0  0  0  0  0  0  0  0
    8.8556   -9.5488    0.0000 C   0  0  0  0  0  0  0  0  0  0  0  0
    8.4306   -8.8417    0.0000 C   0  0  0  0  0  0  0  0  0  0  0  0
    8.7866   -8.0975    0.0000 C   0  0  0  0  0  0  0  0  0  0  0  0
    8.4268   -7.3551    0.0000 C   0  0  0  0  0  0  0  0  0  0  0  0
    7.6220   -7.1736    0.0000 C   0  0  0  0  0  0  0  0  0  0  0  0
    5.7098   -8.1054    0.0000 C   0  0  0  0  0  0  0  0  0  0  0  0
    6.1930   -7.4367    0.0000 C   0  0  0  0  0  0  0  0  0  0  0  0
    6.9783   -7.6896    0.0000 C   0  0  1  0  0  0  0  0  0  0  0  0
    6.9804   -8.5146    0.0000 C   0  0  2  0  0  0  0  0  0  0  0  0
    6.1965   -8.7716    0.0000 O   0  0  0  0  0  0  0  0  0  0  0  0
 18  1  1  6  0  0  0
 17  2  1  1  0  0  0
 12  3  1  0  0  0  0
  8  4  1  0  0  0  0
 16  5  2  0  0  0  0
 15  6  2  0  0  0  0
 14 17  1  0  0  0  0
  7 18  1  0  0  0  0
  8  7  2  0  0  0  0
  9  8  1  0  0  0  0
 10  9  1  0  0  0  0
 11 10  1  0  0  0  0
 12 11  2  0  0  0  0
 13 12  1  0  0  0  0
 14 13  1  0  0  0  0
 19 15  1  0  0  0  0
 16 15  1  0  0  0  0
 17 16  1  0  0  0  0
 18 17  1  0  0  0  0
 19 18  1  0  0  0  0
M  END
>  <cdx:fragmentId>
15

$$$$
