99871.cdx
  Mrv1902 05222410242D          

 19 21  0  0  0  0            999 V2000
    7.7670   -5.7524    0.0000 O   0  0  0  0  0  0  0  0  0  0  0  0
    8.5885   -5.6764    0.0000 C   0  0  0  0  0  0  0  0  0  0  0  0
    8.9146   -6.4342    0.0000 C   0  0  0  0  0  0  0  0  0  0  0  0
    8.2947   -6.9786    0.0000 C   0  0  1  0  0  0  0  0  0  0  0  0
    8.2845   -7.8035    0.0000 C   0  0  0  0  0  0  0  0  0  0  0  0
    7.5649   -8.2071    0.0000 C   0  0  0  0  0  0  0  0  0  0  0  0
    6.8556   -7.7857    0.0000 C   0  0  1  0  0  0  0  0  0  0  0  0
    6.8659   -6.9608    0.0000 C   0  0  2  0  0  0  0  0  0  0  0  0
    7.5854   -6.5572    0.0000 C   0  0  2  0  0  0  0  0  0  0  0  0
    6.1566   -6.5395    0.0000 C   0  0  0  0  0  0  0  0  0  0  0  0
    5.4371   -6.9430    0.0000 C   0  0  0  0  0  0  0  0  0  0  0  0
    5.4268   -7.7680    0.0000 C   0  0  0  0  0  0  0  0  0  0  0  0
    6.1361   -8.1893    0.0000 C   0  0  2  0  0  0  0  0  0  0  0  0
    9.0098   -4.9671    0.0000 O   0  0  0  0  0  0  0  0  0  0  0  0
    9.7194   -6.6157    0.0000 C   0  0  0  0  0  0  0  0  0  0  0  0
    6.1669   -5.7145    0.0000 C   0  0  0  0  0  0  0  0  0  0  0  0
    6.8454   -8.6107    0.0000 C   0  0  0  0  0  0  0  0  0  0  0  0
    6.1259   -9.0143    0.0000 O   0  0  0  0  0  0  0  0  0  0  0  0
    6.8762   -6.1359    0.0000 H   0  0  0  0  0  0  0  0  0  0  0  0
  1  2  1  0  0  0  0
  2  3  1  0  0  0  0
  4  3  1  1  0  0  0
  4  5  1  0  0  0  0
  5  6  1  0  0  0  0
  6  7  1  0  0  0  0
  7  8  1  0  0  0  0
  8  9  1  0  0  0  0
  4  9  1  0  0  0  0
  9  1  1  6  0  0  0
 10 11  2  0  0  0  0
 11 12  1  0  0  0  0
 12 13  1  0  0  0  0
 13  7  1  0  0  0  0
 10  8  1  0  0  0  0
  2 14  2  0  0  0  0
  3 15  2  0  0  0  0
 10 16  1  0  0  0  0
  7 17  1  1  0  0  0
 13 18  1  1  0  0  0
  8 19  1  6  0  0  0
M  END
>  <cdx:fragmentId>
16592

$$$$
