99875.cdx
  Mrv1902 05222410252D          

 29 31  0  0  0  0            999 V2000
    3.6281   -9.4589    0.0000 O   0  0  0  0  0  0  0  0  0  0  0  0
    4.3425  -10.6964    0.0000 O   0  0  0  0  0  0  0  0  0  0  0  0
    5.0570  -10.2839    0.0000 C   0  0  2  0  0  0  0  0  0  0  0  0
    5.0570   -9.4589    0.0000 C   0  0  1  0  0  0  0  0  0  0  0  0
    4.3425   -9.0464    0.0000 C   0  0  0  0  0  0  0  0  0  0  0  0
    5.7715  -10.6964    0.0000 C   0  0  1  0  0  0  0  0  0  0  0  0
    6.4859  -10.2839    0.0000 C   0  0  2  0  0  0  0  0  0  0  0  0
    6.4859   -9.4589    0.0000 C   0  0  1  0  0  0  0  0  0  0  0  0
    5.7715   -9.0464    0.0000 O   0  0  0  0  0  0  0  0  0  0  0  0
    7.1649   -5.7466    0.0000 O   0  0  0  0  0  0  0  0  0  0  0  0
    5.0228   -4.5321    0.0000 O   0  0  0  0  0  0  0  0  0  0  0  0
    5.7504   -6.5900    0.0000 C   0  0  0  0  0  0  0  0  0  0  0  0
    5.7451   -5.7650    0.0000 C   0  0  0  0  0  0  0  0  0  0  0  0
    5.0280   -5.3571    0.0000 C   0  0  0  0  0  0  0  0  0  0  0  0
    4.3162   -5.7741    0.0000 C   0  0  0  0  0  0  0  0  0  0  0  0
    5.0386   -7.0070    0.0000 C   0  0  0  0  0  0  0  0  0  0  0  0
    4.3215   -6.5991    0.0000 C   0  0  0  0  0  0  0  0  0  0  0  0
    5.0438   -7.8320    0.0000 C   0  0  0  0  0  0  0  0  0  0  0  0
    5.7627   -8.2368    0.0000 C   0  0  0  0  0  0  0  0  0  0  0  0
    7.8927   -6.9763    0.0000 C   0  0  0  0  0  0  0  0  0  0  0  0
    7.1738   -6.5715    0.0000 C   0  0  0  0  0  0  0  0  0  0  0  0
    6.4638   -6.9917    0.0000 C   0  0  0  0  0  0  0  0  0  0  0  0
    6.4727   -7.8167    0.0000 C   0  0  0  0  0  0  0  0  0  0  0  0
    8.6204   -8.2061    0.0000 O   0  0  0  0  0  0  0  0  0  0  0  0
    7.9015   -7.8013    0.0000 C   0  0  0  0  0  0  0  0  0  0  0  0
    7.1915   -8.2214    0.0000 C   0  0  0  0  0  0  0  0  0  0  0  0
    7.2004   -9.0464    0.0000 O   0  0  0  0  0  0  0  0  0  0  0  0
    5.7715  -11.5214    0.0000 O   0  0  0  0  0  0  0  0  0  0  0  0
    7.2004  -10.6964    0.0000 O   0  0  0  0  0  0  0  0  0  0  0  0
  3  2  1  6  0  0  0
  3  4  1  0  0  0  0
  4  5  1  1  0  0  0
  5  1  1  0  0  0  0
  3  6  1  0  0  0  0
  6  7  1  0  0  0  0
  7  8  1  0  0  0  0
  8  9  1  0  0  0  0
  9  4  1  0  0  0  0
 21 10  1  0  0  0  0
 14 11  1  0  0  0  0
  8 27  1  1  0  0  0
 12 16  2  0  0  0  0
 13 12  1  0  0  0  0
 14 13  2  0  0  0  0
 15 14  1  0  0  0  0
 17 15  2  0  0  0  0
 16 18  1  0  0  0  0
 17 16  1  0  0  0  0
 19 18  2  0  0  0  0
 23 19  1  0  0  0  0
 20 25  1  0  0  0  0
 21 20  2  0  0  0  0
 22 21  1  0  0  0  0
 23 22  2  0  0  0  0
 26 23  1  0  0  0  0
 25 24  1  0  0  0  0
 26 25  2  0  0  0  0
 27 26  1  0  0  0  0
  6 28  1  1  0  0  0
  7 29  1  6  0  0  0
M  END
>  <cdx:fragmentId>
5

$$$$
