99877.cdx
  Mrv1902 05222410252D          

 26 27  0  0  0  0            999 V2000
    5.4716   -7.2410    0.0000 C   0  0  0  0  0  0  0  0  0  0  0  0
    4.7580   -6.8269    0.0000 C   0  0  0  0  0  0  0  0  0  0  0  0
    4.0426   -7.2377    0.0000 C   0  0  0  0  0  0  0  0  0  0  0  0
    4.0407   -8.0627    0.0000 C   0  0  0  0  0  0  0  0  0  0  0  0
    4.7542   -8.4769    0.0000 C   0  0  0  0  0  0  0  0  0  0  0  0
    5.4696   -8.0660    0.0000 C   0  0  0  0  0  0  0  0  0  0  0  0
    6.1870   -6.8302    0.0000 O   0  0  0  0  0  0  0  0  0  0  0  0
    6.9005   -7.2443    0.0000 C   0  0  0  0  0  0  0  0  0  0  0  0
    4.7599   -6.0019    0.0000 O   0  0  0  0  0  0  0  0  0  0  0  0
    4.7523   -9.3019    0.0000 C   0  0  0  0  0  0  0  0  0  0  0  0
    5.4668   -9.7144    0.0000 C   0  0  0  0  0  0  0  0  0  0  0  0
    6.1813   -9.3019    0.0000 C   0  0  0  0  0  0  0  0  0  0  0  0
    6.8957   -9.7144    0.0000 O   0  0  0  0  0  0  0  0  0  0  0  0
    6.1813   -8.4769    0.0000 O   0  0  0  0  0  0  0  0  0  0  0  0
    7.6102   -9.3019    0.0000 C   0  0  1  0  0  0  0  0  0  0  0  0
    8.3247   -9.7144    0.0000 C   0  0  2  0  0  0  0  0  0  0  0  0
    9.0391   -9.3019    0.0000 C   0  0  1  0  0  0  0  0  0  0  0  0
    9.0391   -8.4769    0.0000 C   0  0  0  0  0  0  0  0  0  0  0  0
    8.3247   -8.0644    0.0000 C   0  0  2  0  0  0  0  0  0  0  0  0
    7.6102   -8.4769    0.0000 C   0  0  0  0  0  0  0  0  0  0  0  0
    8.3247  -10.5394    0.0000 O   0  0  0  0  0  0  0  0  0  0  0  0
    9.7536   -9.7144    0.0000 O   0  0  0  0  0  0  0  0  0  0  0  0
    7.9122   -7.3499    0.0000 O   0  0  0  0  0  0  0  0  0  0  0  0
    8.7372   -7.3499    0.0000 C   0  0  0  0  0  0  0  0  0  0  0  0
    9.5622   -7.3499    0.0000 O   0  0  0  0  0  0  0  0  0  0  0  0
    8.3247   -6.6354    0.0000 O   0  0  0  0  0  0  0  0  0  0  0  0
  1  2  2  0  0  0  0
  2  3  1  0  0  0  0
  3  4  2  0  0  0  0
  4  5  1  0  0  0  0
  5  6  2  0  0  0  0
  6  1  1  0  0  0  0
  1  7  1  0  0  0  0
  7  8  1  0  0  0  0
  2  9  1  0  0  0  0
  5 10  1  0  0  0  0
 10 11  2  0  0  0  0
 11 12  1  0  0  0  0
 12 13  1  0  0  0  0
 12 14  2  0  0  0  0
 15 13  1  6  0  0  0
 15 16  1  0  0  0  0
 16 17  1  0  0  0  0
 17 18  1  0  0  0  0
 18 19  1  0  0  0  0
 19 20  1  0  0  0  0
 20 15  1  0  0  0  0
 16 21  1  6  0  0  0
 17 22  1  1  0  0  0
 19 23  1  6  0  0  0
 19 24  1  0  0  0  0
 24 25  1  0  0  0  0
 24 26  2  0  0  0  0
M  END
>  <cdx:fragmentId>
5

$$$$
