99878.cdx
  Mrv1902 05222410212D          

 19 18  0  0  0  0            999 V2000
    1.5205   -7.9554    0.0000 C   0  0  0  0  0  0  0  0  0  0  0  0
    2.2350   -7.5429    0.0000 C   0  0  0  0  0  0  0  0  0  0  0  0
    2.9494   -7.9554    0.0000 C   0  0  0  0  0  0  0  0  0  0  0  0
    3.6639   -7.5429    0.0000 C   0  0  0  0  0  0  0  0  0  0  0  0
    4.3784   -7.9554    0.0000 C   0  0  0  0  0  0  0  0  0  0  0  0
    5.0929   -7.5429    0.0000 C   0  0  0  0  0  0  0  0  0  0  0  0
    5.8073   -7.9554    0.0000 C   0  0  0  0  0  0  0  0  0  0  0  0
    6.5218   -7.5429    0.0000 C   0  0  0  0  0  0  0  0  0  0  0  0
    7.2363   -7.9554    0.0000 C   0  0  0  0  0  0  0  0  0  0  0  0
    7.9507   -7.5429    0.0000 C   0  0  0  0  0  0  0  0  0  0  0  0
    8.6652   -7.9554    0.0000 C   0  0  0  0  0  0  0  0  0  0  0  0
    9.3797   -7.5429    0.0000 C   0  0  0  0  0  0  0  0  0  0  0  0
   10.0941   -7.9554    0.0000 C   0  0  0  0  0  0  0  0  0  0  0  0
   10.8086   -7.5429    0.0000 C   0  0  0  0  0  0  0  0  0  0  0  0
   11.5231   -7.9554    0.0000 C   0  0  0  0  0  0  0  0  0  0  0  0
   12.2376   -7.5429    0.0000 C   0  0  0  0  0  0  0  0  0  0  0  0
   12.9520   -7.9554    0.0000 C   0  0  0  0  0  0  0  0  0  0  0  0
   13.6665   -7.5429    0.0000 C   0  0  0  0  0  0  0  0  0  0  0  0
    0.8060   -7.5429    0.0000 O   0  0  0  0  0  0  0  0  0  0  0  0
  1  2  1  0  0  0  0
  2  3  1  0  0  0  0
  3  4  1  0  0  0  0
  4  5  1  0  0  0  0
  5  6  1  0  0  0  0
  6  7  1  0  0  0  0
  7  8  1  0  0  0  0
  8  9  1  0  0  0  0
  9 10  2  3  0  0  0
 10 11  1  0  0  0  0
 11 12  1  0  0  0  0
 12 13  2  3  0  0  0
 13 14  1  0  0  0  0
 14 15  1  0  0  0  0
 15 16  2  3  0  0  0
 16 17  1  0  0  0  0
 17 18  1  0  0  0  0
  1 19  1  0  0  0  0
M  END
>  <cdx:fragmentId>
29363

$$$$
