99888.cdx
  Mrv1902 05222410252D          

 32 35  0  0  0  0            999 V2000
    7.0862   -8.0850    0.0000 C   0  0  0  0  0  0  0  0  0  0  0  0
    7.0862   -8.9100    0.0000 C   0  0  2  0  0  0  0  0  0  0  0  0
    7.8006   -9.3225    0.0000 C   0  0  0  0  0  0  0  0  0  0  0  0
    8.5151   -8.9100    0.0000 C   0  0  2  0  0  0  0  0  0  0  0  0
    8.5151   -8.0850    0.0000 C   0  0  2  0  0  0  0  0  0  0  0  0
    7.8006   -7.6725    0.0000 C   0  0  1  0  0  0  0  0  0  0  0  0
    7.8006  -10.1475    0.0000 C   0  0  0  0  0  0  0  0  0  0  0  0
    8.5151  -10.5600    0.0000 C   0  0  0  0  0  0  0  0  0  0  0  0
    9.2296  -10.1475    0.0000 C   0  0  2  0  0  0  0  0  0  0  0  0
    9.2296   -9.3225    0.0000 C   0  0  2  0  0  0  0  0  0  0  0  0
   10.0142  -10.4024    0.0000 C   0  0  1  0  0  0  0  0  0  0  0  0
   10.4991   -9.7350    0.0000 C   0  0  0  0  0  0  0  0  0  0  0  0
   10.0142   -9.0676    0.0000 O   0  0  0  0  0  0  0  0  0  0  0  0
    7.8006   -6.8475    0.0000 C   0  0  0  0  0  0  0  0  0  0  0  0
    9.2296   -7.6725    0.0000 C   0  0  0  0  0  0  0  0  0  0  0  0
    9.3158   -8.5020    0.0000 H   0  0  0  0  0  0  0  0  0  0  0  0
    6.3717   -9.3225    0.0000 O   0  0  0  0  0  0  0  0  0  0  0  0
    8.5151   -9.7350    0.0000 H   0  0  0  0  0  0  0  0  0  0  0  0
    9.3158  -10.9680    0.0000 H   0  0  0  0  0  0  0  0  0  0  0  0
   10.2692  -11.1871    0.0000 C   0  0  0  0  0  0  0  0  0  0  0  0
    4.9321   -7.6830    0.0000 C   0  0  2  0  0  0  0  0  0  0  0  0
    4.2181   -8.0963    0.0000 C   0  0  2  0  0  0  0  0  0  0  0  0
    4.2191   -8.9213    0.0000 C   0  0  1  0  0  0  0  0  0  0  0  0
    4.9340   -9.3330    0.0000 C   0  0  2  0  0  0  0  0  0  0  0  0
    5.6480   -8.9196    0.0000 C   0  0  1  0  0  0  0  0  0  0  0  0
    5.6470   -8.0946    0.0000 O   0  0  0  0  0  0  0  0  0  0  0  0
    4.9311   -6.8580    0.0000 C   0  0  0  0  0  0  0  0  0  0  0  0
    3.5051   -9.3347    0.0000 O   0  0  0  0  0  0  0  0  0  0  0  0
    3.5031   -7.6847    0.0000 O   0  0  0  0  0  0  0  0  0  0  0  0
    4.9350  -10.1580    0.0000 O   0  0  0  0  0  0  0  0  0  0  0  0
    4.2161   -6.4463    0.0000 O   0  0  0  0  0  0  0  0  0  0  0  0
   11.3241   -9.7350    0.0000 O   0  0  0  0  0  0  0  0  0  0  0  0
  1  2  1  0  0  0  0
  2  3  1  0  0  0  0
  3  4  1  0  0  0  0
  4  5  1  0  0  0  0
  5  6  1  0  0  0  0
  6  1  1  0  0  0  0
  3  7  1  0  0  0  0
  7  8  1  0  0  0  0
  8  9  1  0  0  0  0
  9 10  1  0  0  0  0
 10  4  1  0  0  0  0
  9 11  1  0  0  0  0
 11 12  1  0  0  0  0
 12 13  1  0  0  0  0
 13 10  1  0  0  0  0
  6 14  1  6  0  0  0
  5 15  1  6  0  0  0
 10 16  1  6  0  0  0
  2 17  1  6  0  0  0
  4 18  1  1  0  0  0
  9 19  1  1  0  0  0
 11 20  1  1  0  0  0
 21 22  1  0  0  0  0
 22 23  1  0  0  0  0
 23 24  1  0  0  0  0
 24 25  1  0  0  0  0
 25 26  1  0  0  0  0
 26 21  1  0  0  0  0
 21 27  1  1  0  0  0
 23 28  1  1  0  0  0
 22 29  1  6  0  0  0
 24 30  1  6  0  0  0
 27 31  1  0  0  0  0
 12 32  2  0  0  0  0
 25 17  1  1  0  0  0
M  END
>  <cdx:fragmentId>
5

$$$$
