99890.cdx
  Mrv1902 05222410212D          

 16 15  0  0  0  0            999 V2000
    5.0810   -5.4456    0.0000 C   0  0  0  0  0  0  0  0  0  0  0  0
    4.8675   -6.2425    0.0000 C   0  0  0  0  0  0  0  0  0  0  0  0
    5.2675   -6.8828    0.0000 C   0  0  2  0  0  0  0  0  0  0  0  0
    5.9928   -6.4897    0.0000 C   0  0  0  0  0  0  0  0  0  0  0  0
    6.6959   -6.9214    0.0000 C   0  0  0  0  0  0  0  0  0  0  0  0
    7.4213   -6.5283    0.0000 C   0  0  0  0  0  0  0  0  0  0  0  0
    8.1244   -6.9599    0.0000 C   0  0  0  0  0  0  0  0  0  0  0  0
    8.1021   -7.7846    0.0000 C   0  0  0  0  0  0  0  0  0  0  0  0
    8.8052   -8.2162    0.0000 C   0  0  0  0  0  0  0  0  0  0  0  0
    8.7829   -9.0409    0.0000 C   0  0  0  0  0  0  0  0  0  0  0  0
    9.4860   -9.4726    0.0000 C   0  0  0  0  0  0  0  0  0  0  0  0
   10.2113   -9.0795    0.0000 C   0  0  0  0  0  0  0  0  0  0  0  0
    4.5530   -7.2953    0.0000 O   0  0  0  0  0  0  0  0  0  0  0  0
    9.4638  -10.2973    0.0000 C   0  0  0  0  0  0  0  0  0  0  0  0
    8.8497   -6.5668    0.0000 C   0  0  0  0  0  0  0  0  0  0  0  0
    5.6800   -7.5973    0.0000 C   0  0  0  0  0  0  0  0  0  0  0  0
  1  2  2  0  0  0  0
  2  3  1  0  0  0  0
  3  4  1  0  0  0  0
  4  5  1  0  0  0  0
  5  6  1  0  0  0  0
  6  7  2  0  0  0  0
  7  8  1  0  0  0  0
  8  9  1  0  0  0  0
  9 10  1  0  0  0  0
 10 11  2  0  0  0  0
 11 12  1  0  0  0  0
  3 13  1  6  0  0  0
 11 14  1  0  0  0  0
  7 15  1  0  0  0  0
  3 16  1  0  0  0  0
M  END
>  <cdx:fragmentId>
5

$$$$
