99898.cdx
  Mrv1902 05222410232D          

 19 21  0  0  0  0            999 V2000
    6.8339   -8.3228    0.0000 C   0  0  0  0  0  0  0  0  0  0  0  0
    6.1206   -7.9050    0.0000 C   0  0  2  0  0  0  0  0  0  0  0  0
    7.6460   -8.1836    0.0000 C   0  0  0  0  0  0  0  0  0  0  0  0
    8.1827   -7.5548    0.0000 C   0  0  2  0  0  0  0  0  0  0  0  0
    8.1852   -6.7309    0.0000 C   0  0  1  0  0  0  0  0  0  0  0  0
    7.6658   -6.0899    0.0000 C   0  0  0  0  0  0  0  0  0  0  0  0
    6.8544   -5.9368    0.0000 C   0  0  0  0  0  0  0  0  0  0  0  0
    6.1378   -6.3445    0.0000 C   0  0  0  0  0  0  0  0  0  0  0  0
    5.8599   -7.1207    0.0000 C   0  0  2  0  0  0  0  0  0  0  0  0
    5.3111   -7.7386    0.0000 O   0  0  0  0  0  0  0  0  0  0  0  0
    8.0887   -5.3815    0.0000 C   0  0  0  0  0  0  0  0  0  0  0  0
    9.0065   -7.5573    0.0000 C   0  0  0  0  0  0  0  0  0  0  0  0
    9.0090   -6.7334    0.0000 C   0  0  0  0  0  0  0  0  0  0  0  0
    9.8315   -7.5624    0.0000 C   0  0  0  0  0  0  0  0  0  0  0  0
    9.0014   -8.3823    0.0000 C   0  0  0  0  0  0  0  0  0  0  0  0
    8.3912   -8.3530    0.0000 H   0  0  0  0  0  0  0  0  0  0  0  0
    5.1502   -6.7001    0.0000 H   0  0  0  0  0  0  0  0  0  0  0  0
    5.8252   -8.6753    0.0000 C   0  0  0  0  0  0  0  0  0  0  0  0
    8.6021   -6.0191    0.0000 H   0  0  0  0  0  0  0  0  0  0  0  0
  1  2  1  0  0  0  0
  1  3  1  0  0  0  0
  3  4  1  0  0  0  0
  4  5  1  0  0  0  0
  5  6  1  0  0  0  0
  6  7  1  0  0  0  0
  7  8  1  0  0  0  0
  8  9  1  0  0  0  0
  2  9  1  0  0  0  0
  9 10  1  0  0  0  0
 10  2  1  0  0  0  0
  6 11  2  0  0  0  0
  4 12  1  0  0  0  0
 12 13  1  0  0  0  0
 13  5  1  0  0  0  0
 12 14  1  0  0  0  0
 12 15  1  0  0  0  0
  4 16  1  1  0  0  0
  9 17  1  6  0  0  0
  2 18  1  6  0  0  0
  5 19  1  6  0  0  0
M  END
>  <cdx:fragmentId>
739

$$$$
