99893.cdx
  Mrv1902 05222410212D          

 15 15  0  0  0  0            999 V2000
    7.3977   -7.5146    0.0000 C   0  0  1  0  0  0  0  0  0  0  0  0
    6.6832   -7.9271    0.0000 C   0  0  2  0  0  0  0  0  0  0  0  0
    6.6832   -8.7521    0.0000 C   0  0  0  0  0  0  0  0  0  0  0  0
    7.3977   -9.1646    0.0000 C   0  0  2  0  0  0  0  0  0  0  0  0
    8.1122   -8.7521    0.0000 C   0  0  0  0  0  0  0  0  0  0  0  0
    8.1122   -7.9271    0.0000 C   0  0  0  0  0  0  0  0  0  0  0  0
    7.3977   -9.9896    0.0000 C   0  0  0  0  0  0  0  0  0  0  0  0
    6.6833  -10.4021    0.0000 C   0  0  0  0  0  0  0  0  0  0  0  0
    8.1122  -10.4021    0.0000 C   0  0  0  0  0  0  0  0  0  0  0  0
    5.9688   -7.5146    0.0000 C   0  0  0  0  0  0  0  0  0  0  0  0
    5.2543   -7.9271    0.0000 C   0  0  0  0  0  0  0  0  0  0  0  0
    5.9688   -6.6896    0.0000 C   0  0  0  0  0  0  0  0  0  0  0  0
    7.8102   -6.8001    0.0000 C   0  0  0  0  0  0  0  0  0  0  0  0
    6.9852   -6.8001    0.0000 C   0  0  0  0  0  0  0  0  0  0  0  0
    8.6352   -6.8001    0.0000 C   0  0  0  0  0  0  0  0  0  0  0  0
  1  2  1  0  0  0  0
  2  3  1  0  0  0  0
  3  4  1  0  0  0  0
  4  5  1  0  0  0  0
  5  6  1  0  0  0  0
  1  6  1  0  0  0  0
  7  8  2  0  0  0  0
  7  9  1  0  0  0  0
  4  7  1  6  0  0  0
 10 11  1  0  0  0  0
 10 12  2  0  0  0  0
  2 10  1  6  0  0  0
  1 13  1  0  0  0  0
  1 14  1  1  0  0  0
 13 15  2  0  0  0  0
M  END
>  <cdx:fragmentId>
5

$$$$
