99909.cdx
  Mrv1902 05222410222D          

 15 16  0  0  0  0            999 V2000
    8.6614   -8.2130    0.0000 C   0  0  2  0  0  0  0  0  0  0  0  0
    9.2624   -8.7782    0.0000 C   0  0  0  0  0  0  0  0  0  0  0  0
    8.9105   -9.5244    0.0000 C   0  0  0  0  0  0  0  0  0  0  0  0
    8.0921   -9.4204    0.0000 C   0  0  0  0  0  0  0  0  0  0  0  0
    7.5544  -10.0461    0.0000 C   0  0  1  0  0  0  0  0  0  0  0  0
    6.7300  -10.0158    0.0000 C   0  0  0  0  0  0  0  0  0  0  0  0
    6.2396   -9.3524    0.0000 C   0  0  0  0  0  0  0  0  0  0  0  0
    6.4526   -8.5553    0.0000 C   0  0  0  0  0  0  0  0  0  0  0  0
    7.2085   -8.2249    0.0000 C   0  0  0  0  0  0  0  0  0  0  0  0
    7.9382   -8.6099    0.0000 C   0  0  0  0  0  0  0  0  0  0  0  0
    5.9797   -7.2069    0.0000 C   0  0  0  0  0  0  0  0  0  0  0  0
    5.8269   -8.0176    0.0000 C   0  0  0  0  0  0  0  0  0  0  0  0
    5.0483   -8.2907    0.0000 C   0  0  0  0  0  0  0  0  0  0  0  0
    7.8848  -10.8020    0.0000 C   0  0  0  0  0  0  0  0  0  0  0  0
    8.7655   -7.3946    0.0000 C   0  0  0  0  0  0  0  0  0  0  0  0
  1  2  1  0  0  0  0
  2  3  1  0  0  0  0
  3  4  1  0  0  0  0
  4  5  1  0  0  0  0
  5  6  1  0  0  0  0
  6  7  1  0  0  0  0
  7  8  1  0  0  0  0
  8  9  1  0  0  0  0
  9 10  1  0  0  0  0
  1 10  1  0  0  0  0
  4 10  2  0  0  0  0
 11 12  1  0  0  0  0
 12 13  1  0  0  0  0
  8 12  2  0  0  0  0
  5 14  1  6  0  0  0
  1 15  1  6  0  0  0
M  END
>  <cdx:fragmentId>
5

$$$$
