99907.cdx
  Mrv1902 05222410232D          

 15 15  0  0  0  0            999 V2000
    7.3989   -9.1642    0.0000 C   0  0  0  0  0  0  0  0  0  0  0  0
    6.6837   -8.7529    0.0000 C   0  0  0  0  0  0  0  0  0  0  0  0
    6.6824   -7.9279    0.0000 C   0  0  0  0  0  0  0  0  0  0  0  0
    7.3961   -7.5142    0.0000 C   0  0  0  0  0  0  0  0  0  0  0  0
    8.1113   -7.9256    0.0000 C   0  0  0  0  0  0  0  0  0  0  0  0
    8.1127   -8.7506    0.0000 C   0  0  0  0  0  0  0  0  0  0  0  0
    7.4003   -9.9892    0.0000 C   0  0  0  0  0  0  0  0  0  0  0  0
    6.6865  -10.4029    0.0000 C   0  0  0  0  0  0  0  0  0  0  0  0
    8.1154  -10.4005    0.0000 C   0  0  0  0  0  0  0  0  0  0  0  0
    5.9672   -7.5166    0.0000 C   0  0  0  0  0  0  0  0  0  0  0  0
    5.2534   -7.9303    0.0000 C   0  0  0  0  0  0  0  0  0  0  0  0
    5.9658   -6.6916    0.0000 C   0  0  0  0  0  0  0  0  0  0  0  0
    7.8074   -6.7991    0.0000 C   0  0  0  0  0  0  0  0  0  0  0  0
    6.9824   -6.8005    0.0000 C   0  0  0  0  0  0  0  0  0  0  0  0
    7.3937   -6.0853    0.0000 C   0  0  0  0  0  0  0  0  0  0  0  0
  1  2  2  0  0  0  0
  2  3  1  0  0  0  0
  3  4  1  0  0  0  0
  4  5  1  0  0  0  0
  5  6  1  0  0  0  0
  1  6  1  0  0  0  0
  7  8  1  0  0  0  0
  7  9  1  0  0  0  0
  1  7  1  0  0  0  0
 10 11  2  0  0  0  0
 10 12  1  0  0  0  0
  3 10  1  0  0  0  0
  4 13  1  0  0  0  0
 14 15  2  0  0  0  0
  4 14  1  0  0  0  0
M  END
>  <cdx:fragmentId>
5

$$$$
