99904.cdx
  Mrv1902 05222410242D          

 12 13  0  0  0  0            999 V2000
    7.0943   -7.3599    0.0000 C   0  0  0  0  0  0  0  0  0  0  0  0
    6.6821   -8.0736    0.0000 C   0  0  1  0  0  0  0  0  0  0  0  0
    8.1675   -8.3050    0.0000 C   0  0  0  0  0  0  0  0  0  0  0  0
    5.6650   -8.3050    0.0000 C   0  0  0  0  0  0  0  0  0  0  0  0
    6.0500   -9.0200    0.0000 C   0  0  0  0  0  0  0  0  0  0  0  0
    7.0957   -8.7873    0.0000 C   0  0  1  0  0  0  0  0  0  0  0  0
    8.1400   -9.0475    0.0000 C   0  0  0  0  0  0  0  0  0  0  0  0
    5.6375   -9.7345    0.0000 O   0  0  0  0  0  0  0  0  0  0  0  0
    6.8808   -6.5630    0.0000 C   0  0  0  0  0  0  0  0  0  0  0  0
    7.8088   -6.9474    0.0000 C   0  0  0  0  0  0  0  0  0  0  0  0
    6.2696   -7.3592    0.0000 H   0  0  0  0  0  0  0  0  0  0  0  0
    7.0957   -9.6123    0.0000 C   0  0  0  0  0  0  0  0  0  0  0  0
  2  1  1  0  0  0  0
  4  2  1  0  0  0  0
  3  2  1  0  0  0  0
  7  3  1  0  0  0  0
  5  4  1  0  0  0  0
  6  5  1  0  0  0  0
  7  6  1  0  0  0  0
  1  6  1  0  0  0  0
  5  8  2  0  0  0  0
  1  9  1  0  0  0  0
  1 10  1  0  0  0  0
  2 11  1  6  0  0  0
  6 12  1  1  0  0  0
M  END
>  <cdx:fragmentId>
800

$$$$
