99905.cdx
  Mrv1902 05222410242D          

 12 13  0  0  0  0            999 V2000
    6.6898   -9.6123    0.0000 C   0  0  0  0  0  0  0  0  0  0  0  0
    7.8179   -7.6611    0.0000 H   0  0  0  0  0  0  0  0  0  0  0  0
    5.9768   -6.9474    0.0000 C   0  0  0  0  0  0  0  0  0  0  0  0
    6.9048   -6.5630    0.0000 C   0  0  0  0  0  0  0  0  0  0  0  0
    7.8013   -9.7640    0.0000 O   0  0  0  0  0  0  0  0  0  0  0  0
    5.8931   -9.0014    0.0000 C   0  0  0  0  0  0  0  0  0  0  0  0
    6.6898   -8.7873    0.0000 C   0  0  2  0  0  0  0  0  0  0  0  0
    7.4865   -9.0014    0.0000 C   0  0  0  0  0  0  0  0  0  0  0  0
    7.9002   -8.2877    0.0000 C   0  0  0  0  0  0  0  0  0  0  0  0
    6.3067   -8.2877    0.0000 C   0  0  0  0  0  0  0  0  0  0  0  0
    7.1034   -8.0736    0.0000 C   0  0  1  0  0  0  0  0  0  0  0  0
    6.6912   -7.3599    0.0000 C   0  0  0  0  0  0  0  0  0  0  0  0
  7  1  1  1  0  0  0
 11  2  1  6  0  0  0
 12  3  1  0  0  0  0
 12  4  1  0  0  0  0
  8  5  2  0  0  0  0
  6  7  1  0  0  0  0
  7  8  1  0  0  0  0
  8  9  1  0  0  0  0
  6 10  1  0  0  0  0
 10 11  1  0  0  0  0
  9 11  1  0  0  0  0
 11 12  1  0  0  0  0
  7 12  1  0  0  0  0
M  END
>  <cdx:fragmentId>
800

$$$$
