99919.cdx
  Mrv1902 05222410212D          

 18 20  0  0  0  0            999 V2000
    6.7404   -7.4885    0.0000 C   0  0  0  0  0  0  0  0  0  0  0  0
    7.4548   -7.0760    0.0000 C   0  0  0  0  0  0  0  0  0  0  0  0
    8.1693   -7.4885    0.0000 C   0  0  0  0  0  0  0  0  0  0  0  0
    8.1693   -8.3135    0.0000 C   0  0  2  0  0  0  0  0  0  0  0  0
    8.9943   -8.3135    0.0000 H   0  0  0  0  0  0  0  0  0  0  0  0
    8.1693   -9.1385    0.0000 C   0  0  0  0  0  0  0  0  0  0  0  0
    8.8838   -9.5510    0.0000 C   0  0  0  0  0  0  0  0  0  0  0  0
    8.1693   -9.9635    0.0000 C   0  0  0  0  0  0  0  0  0  0  0  0
    7.4548   -8.7260    0.0000 C   0  0  2  0  0  0  0  0  0  0  0  0
    7.0423   -9.4405    0.0000 H   0  0  0  0  0  0  0  0  0  0  0  0
    6.7404   -8.3135    0.0000 C   0  0  1  0  0  0  0  0  0  0  0  0
    6.7404   -9.1385    0.0000 C   0  0  0  0  0  0  0  0  0  0  0  0
    6.0259   -8.7260    0.0000 C   0  0  1  0  0  0  0  0  0  0  0  0
    6.0259   -9.5510    0.0000 C   0  0  0  0  0  0  0  0  0  0  0  0
    5.3114   -8.3135    0.0000 C   0  0  0  0  0  0  0  0  0  0  0  0
    5.3114   -7.4885    0.0000 C   0  0  0  0  0  0  0  0  0  0  0  0
    6.0259   -7.0760    0.0000 C   0  0  0  0  0  0  0  0  0  0  0  0
    8.8838   -7.0760    0.0000 O   0  0  0  0  0  0  0  0  0  0  0  0
  1  2  2  0  0  0  0
  2  3  1  0  0  0  0
  3  4  1  0  0  0  0
  4  5  1  1  0  0  0
  4  6  1  0  0  0  0
  6  7  1  0  0  0  0
  6  8  1  0  0  0  0
  6  9  1  0  0  0  0
  4  9  1  0  0  0  0
  9 10  1  1  0  0  0
  9 11  1  0  0  0  0
  1 11  1  0  0  0  0
 11 12  1  1  0  0  0
 11 13  1  0  0  0  0
 13 14  1  1  0  0  0
 13 15  1  0  0  0  0
 15 16  1  0  0  0  0
 16 17  1  0  0  0  0
  1 17  1  0  0  0  0
  3 18  2  0  0  0  0
M  END
>  <cdx:fragmentId>
5

$$$$
