99913.cdx
  Mrv1902 05222410232D          

 15 15  0  0  0  0            999 V2000
    6.9037   -8.0506    0.0000 C   0  0  0  0  0  0  0  0  0  0  0  0
    6.8990   -8.8755    0.0000 C   0  0  0  0  0  0  0  0  0  0  0  0
    7.6111   -9.2921    0.0000 C   0  0  0  0  0  0  0  0  0  0  0  0
    8.3279   -8.8836    0.0000 C   0  0  0  0  0  0  0  0  0  0  0  0
    8.3326   -8.0586    0.0000 C   0  0  0  0  0  0  0  0  0  0  0  0
    7.6065  -10.1170    0.0000 C   0  0  0  0  0  0  0  0  0  0  0  0
    6.8897  -10.5255    0.0000 C   0  0  0  0  0  0  0  0  0  0  0  0
    8.3186  -10.5336    0.0000 C   0  0  0  0  0  0  0  0  0  0  0  0
    6.1915   -7.6340    0.0000 C   0  0  0  0  0  0  0  0  0  0  0  0
    5.4747   -8.0425    0.0000 C   0  0  0  0  0  0  0  0  0  0  0  0
    6.1962   -6.8090    0.0000 C   0  0  0  0  0  0  0  0  0  0  0  0
    8.8620   -6.9300    0.0000 C   0  0  0  0  0  0  0  0  0  0  0  0
    8.0370   -6.9300    0.0000 C   0  0  0  0  0  0  0  0  0  0  0  0
    7.2120   -6.9253    0.0000 C   0  0  0  0  0  0  0  0  0  0  0  0
    7.6204   -7.6421    0.0000 C   0  0  0  0  0  0  0  0  0  0  0  0
 15 13  1  0  0  0  0
 13 12  2  0  0  0  0
 15 14  1  0  0  0  0
 15  1  1  0  0  0  0
  1  2  1  0  0  0  0
  2  3  1  0  0  0  0
  3  4  1  0  0  0  0
  4  5  1  0  0  0  0
 15  5  1  0  0  0  0
  6  7  1  0  0  0  0
  6  8  1  0  0  0  0
  3  6  2  0  0  0  0
  9 10  1  0  0  0  0
  9 11  1  0  0  0  0
  1  9  2  0  0  0  0
M  END
>  <cdx:fragmentId>
5

$$$$
