99924.cdx
  Mrv1902 05222410222D          

 35 39  0  0  0  0            999 V2000
    8.9989   -7.7639    0.0000 C   0  0  1  0  0  0  0  0  0  0  0  0
    9.7134   -8.1764    0.0000 C   0  0  1  0  0  0  0  0  0  0  0  0
    9.7134   -9.0014    0.0000 C   0  0  0  0  0  0  0  0  0  0  0  0
    8.9989   -9.4139    0.0000 C   0  0  0  0  0  0  0  0  0  0  0  0
    8.2845   -9.0014    0.0000 C   0  0  1  0  0  0  0  0  0  0  0  0
    7.5700   -9.4139    0.0000 C   0  0  2  0  0  0  0  0  0  0  0  0
    7.5700  -10.2389    0.0000 C   0  0  0  0  0  0  0  0  0  0  0  0
    6.8555  -10.6514    0.0000 C   0  0  0  0  0  0  0  0  0  0  0  0
    6.1410  -10.2389    0.0000 C   0  0  1  0  0  0  0  0  0  0  0  0
    5.4266  -10.6514    0.0000 C   0  0  0  0  0  0  0  0  0  0  0  0
    4.7121  -10.2389    0.0000 C   0  0  0  0  0  0  0  0  0  0  0  0
    4.7121   -9.4139    0.0000 C   0  0  0  0  0  0  0  0  0  0  0  0
    5.4266   -9.0014    0.0000 C   0  0  0  0  0  0  0  0  0  0  0  0
    6.1410   -9.4139    0.0000 C   0  0  2  0  0  0  0  0  0  0  0  0
    6.8555   -9.0014    0.0000 C   0  0  1  0  0  0  0  0  0  0  0  0
    6.8555   -8.1764    0.0000 C   0  0  0  0  0  0  0  0  0  0  0  0
    7.5700   -7.7639    0.0000 C   0  0  0  0  0  0  0  0  0  0  0  0
    8.2845   -8.1764    0.0000 C   0  0  2  0  0  0  0  0  0  0  0  0
   10.3265   -7.6244    0.0000 C   0  0  0  0  0  0  0  0  0  0  0  0
    9.9909   -6.8707    0.0000 C   0  0  0  0  0  0  0  0  0  0  0  0
    9.1705   -6.9570    0.0000 C   0  0  1  0  0  0  0  0  0  0  0  0
    3.9976  -10.6514    0.0000 O   0  0  0  0  0  0  0  0  0  0  0  0
    8.8734   -5.5593    0.0000 C   0  0  0  0  0  0  0  0  0  0  0  0
    8.6184   -6.3439    0.0000 C   0  0  0  0  0  0  0  0  0  0  0  0
    7.8114   -6.5154    0.0000 C   0  0  0  0  0  0  0  0  0  0  0  0
    6.1410   -8.5889    0.0000 C   0  0  0  0  0  0  0  0  0  0  0  0
    5.8391  -11.3659    0.0000 C   0  0  0  0  0  0  0  0  0  0  0  0
    5.0141  -11.3659    0.0000 C   0  0  0  0  0  0  0  0  0  0  0  0
    7.5700   -8.5889    0.0000 C   0  0  0  0  0  0  0  0  0  0  0  0
    8.2845   -9.8264    0.0000 C   0  0  0  0  0  0  0  0  0  0  0  0
   10.4671   -8.5120    0.0000 C   0  0  0  0  0  0  0  0  0  0  0  0
    6.1410  -11.0639    0.0000 H   0  0  0  0  0  0  0  0  0  0  0  0
    6.8555   -9.8264    0.0000 H   0  0  0  0  0  0  0  0  0  0  0  0
    8.2845   -7.3514    0.0000 H   0  0  0  0  0  0  0  0  0  0  0  0
    8.9989   -8.5889    0.0000 H   0  0  0  0  0  0  0  0  0  0  0  0
  1  2  1  0  0  0  0
  2  3  1  0  0  0  0
  3  4  1  0  0  0  0
  4  5  1  0  0  0  0
  5  6  1  0  0  0  0
  6  7  1  0  0  0  0
  7  8  1  0  0  0  0
  8  9  1  0  0  0  0
  9 10  1  0  0  0  0
 10 11  1  0  0  0  0
 11 12  1  0  0  0  0
 12 13  1  0  0  0  0
 13 14  1  0  0  0  0
  9 14  1  0  0  0  0
 14 15  1  0  0  0  0
  6 15  1  0  0  0  0
 15 16  1  0  0  0  0
 16 17  1  0  0  0  0
 17 18  1  0  0  0  0
  5 18  1  0  0  0  0
  1 18  1  0  0  0  0
 19 20  1  0  0  0  0
 20 21  1  0  0  0  0
 21  1  1  0  0  0  0
 19  2  1  0  0  0  0
 11 22  2  0  0  0  0
 23 24  2  0  0  0  0
 24 25  1  0  0  0  0
 21 24  1  6  0  0  0
 14 26  1  1  0  0  0
 10 27  1  0  0  0  0
 10 28  1  0  0  0  0
  6 29  1  1  0  0  0
  5 30  1  6  0  0  0
  2 31  1  1  0  0  0
  9 32  1  6  0  0  0
 15 33  1  6  0  0  0
 18 34  1  1  0  0  0
  1 35  1  6  0  0  0
M  END
>  <cdx:fragmentId>
5

$$$$
