99922.cdx
  Mrv1902 05222410232D          

  9  8  0  0  0  0            999 V2000
    9.3391   -9.2384    0.0000 C   0  0  0  0  0  0  0  0  0  0  0  0
    8.6246   -8.8259    0.0000 C   0  0  0  0  0  0  0  0  0  0  0  0
    7.9101   -9.2384    0.0000 C   0  0  0  0  0  0  0  0  0  0  0  0
    7.1956   -8.8259    0.0000 C   0  0  0  0  0  0  0  0  0  0  0  0
    6.4812   -9.2384    0.0000 C   0  0  0  0  0  0  0  0  0  0  0  0
    5.7667   -8.8259    0.0000 C   0  0  0  0  0  0  0  0  0  0  0  0
    5.7667   -8.0009    0.0000 C   0  0  0  0  0  0  0  0  0  0  0  0
    5.0522   -7.5884    0.0000 C   0  0  0  0  0  0  0  0  0  0  0  0
    8.6246   -8.0009    0.0000 O   0  0  0  0  0  0  0  0  0  0  0  0
  1  2  1  0  0  0  0
  2  3  1  0  0  0  0
  3  4  2  0  0  0  0
  4  5  1  0  0  0  0
  5  6  2  0  0  0  0
  6  7  1  0  0  0  0
  7  8  1  0  0  0  0
  2  9  2  0  0  0  0
M  END
>  <cdx:fragmentId>
5

$$$$
