99929.cdx
  Mrv1902 05222410242D          

 74 81  0  0  0  0            999 V2000
    4.3865   -6.3747    0.0000 O   0  0  0  0  0  0  0  0  0  0  0  0
    3.6720   -6.7872    0.0000 C   0  0  2  0  0  0  0  0  0  0  0  0
    2.9576   -6.3747    0.0000 C   0  0  1  0  0  0  0  0  0  0  0  0
    2.9576   -5.5497    0.0000 C   0  0  1  0  0  0  0  0  0  0  0  0
    3.6720   -5.1372    0.0000 C   0  0  2  0  0  0  0  0  0  0  0  0
    4.3865   -5.5497    0.0000 C   0  0  2  0  0  0  0  0  0  0  0  0
    2.2431   -6.7872    0.0000 O   0  0  0  0  0  0  0  0  0  0  0  0
    2.2431   -5.1372    0.0000 O   0  0  0  0  0  0  0  0  0  0  0  0
    3.6720   -4.3122    0.0000 O   0  0  0  0  0  0  0  0  0  0  0  0
    5.1010   -5.1372    0.0000 C   0  0  0  0  0  0  0  0  0  0  0  0
    3.6720   -7.6122    0.0000 O   0  0  0  0  0  0  0  0  0  0  0  0
    5.1010   -9.2622    0.0000 O   0  0  0  0  0  0  0  0  0  0  0  0
    4.3865   -8.8497    0.0000 C   0  0  1  0  0  0  0  0  0  0  0  0
    4.3865   -8.0247    0.0000 C   0  0  2  0  0  0  0  0  0  0  0  0
    5.1010   -7.6122    0.0000 C   0  0  1  0  0  0  0  0  0  0  0  0
    5.8154   -8.0247    0.0000 C   0  0  2  0  0  0  0  0  0  0  0  0
    5.8154   -8.8497    0.0000 C   0  0  2  0  0  0  0  0  0  0  0  0
    3.6720   -9.2622    0.0000 C   0  0  0  0  0  0  0  0  0  0  0  0
    3.6545  -10.0870    0.0000 O   0  0  0  0  0  0  0  0  0  0  0  0
    2.4157  -10.7993    0.0000 O   0  0  0  0  0  0  0  0  0  0  0  0
    3.2407  -10.8008    0.0000 C   0  0  2  0  0  0  0  0  0  0  0  0
    3.6520  -11.5160    0.0000 C   0  0  1  0  0  0  0  0  0  0  0  0
    3.2382  -12.2297    0.0000 C   0  0  2  0  0  0  0  0  0  0  0  0
    2.4132  -12.2282    0.0000 C   0  0  1  0  0  0  0  0  0  0  0  0
    2.0020  -11.5130    0.0000 C   0  0  1  0  0  0  0  0  0  0  0  0
    1.1770  -11.5116    0.0000 C   0  0  0  0  0  0  0  0  0  0  0  0
    1.9994  -12.9420    0.0000 O   0  0  0  0  0  0  0  0  0  0  0  0
    3.6494  -12.9449    0.0000 O   0  0  0  0  0  0  0  0  0  0  0  0
    4.4770  -11.5175    0.0000 O   0  0  0  0  0  0  0  0  0  0  0  0
    6.5299   -7.6122    0.0000 O   0  0  0  0  0  0  0  0  0  0  0  0
    5.1010   -6.7872    0.0000 O   0  0  0  0  0  0  0  0  0  0  0  0
    6.5299   -9.2622    0.0000 O   0  0  0  0  0  0  0  0  0  0  0  0
    7.9589   -7.6122    0.0000 C   0  0  0  0  0  0  0  0  0  0  0  0
    7.2444   -8.0247    0.0000 C   0  0  0  0  0  0  0  0  0  0  0  0
    7.2444   -8.8497    0.0000 C   0  0  1  0  0  0  0  0  0  0  0  0
    7.9589   -9.2622    0.0000 C   0  0  1  0  0  0  0  0  0  0  0  0
    8.6733   -8.8497    0.0000 C   0  0  2  0  0  0  0  0  0  0  0  0
    9.3878   -9.2622    0.0000 C   0  0  0  0  0  0  0  0  0  0  0  0
   10.1023   -8.8497    0.0000 C   0  0  0  0  0  0  0  0  0  0  0  0
   10.1023   -8.0247    0.0000 C   0  0  1  0  0  0  0  0  0  0  0  0
   10.8167   -7.6122    0.0000 C   0  0  2  0  0  0  0  0  0  0  0  0
   11.5312   -8.0247    0.0000 C   0  0  0  0  0  0  0  0  0  0  0  0
   12.2457   -7.6122    0.0000 C   0  0  1  0  0  0  0  0  0  0  0  0
   12.2457   -6.7872    0.0000 C   0  0  1  0  0  0  0  0  0  0  0  0
   12.9602   -6.3747    0.0000 C   0  0  0  0  0  0  0  0  0  0  0  0
   12.9602   -5.5497    0.0000 C   0  0  0  0  0  0  0  0  0  0  0  0
   12.2457   -5.1372    0.0000 C   0  0  1  0  0  0  0  0  0  0  0  0
   11.5312   -5.5497    0.0000 C   0  0  0  0  0  0  0  0  0  0  0  0
   11.5312   -6.3747    0.0000 C   0  0  0  0  0  0  0  0  0  0  0  0
   10.8167   -6.7872    0.0000 C   0  0  0  0  0  0  0  0  0  0  0  0
   10.1023   -6.3747    0.0000 C   0  0  0  0  0  0  0  0  0  0  0  0
    9.3878   -6.7872    0.0000 C   0  0  0  0  0  0  0  0  0  0  0  0
    9.3878   -7.6122    0.0000 C   0  0  2  0  0  0  0  0  0  0  0  0
    8.6733   -8.0247    0.0000 C   0  0  1  0  0  0  0  0  0  0  0  0
    8.6733   -7.1997    0.0000 C   0  0  0  0  0  0  0  0  0  0  0  0
   11.8332   -4.4228    0.0000 C   0  0  0  0  0  0  0  0  0  0  0  0
   12.6582   -4.4228    0.0000 C   0  0  0  0  0  0  0  0  0  0  0  0
   10.8167   -8.4372    0.0000 C   0  0  0  0  0  0  0  0  0  0  0  0
   10.1023   -7.1997    0.0000 C   0  0  0  0  0  0  0  0  0  0  0  0
    7.5464   -9.9767    0.0000 C   0  0  0  0  0  0  0  0  0  0  0  0
   12.9602   -7.1997    0.0000 C   0  0  0  0  0  0  0  0  0  0  0  0
   13.6746   -6.7872    0.0000 O   0  0  0  0  0  0  0  0  0  0  0  0
    8.3714   -9.9767    0.0000 C   0  0  0  0  0  0  0  0  0  0  0  0
    7.9589  -10.6912    0.0000 O   0  0  0  0  0  0  0  0  0  0  0  0
   12.9602   -8.0247    0.0000 O   0  0  0  0  0  0  0  0  0  0  0  0
    0.7657  -10.7964    0.0000 O   0  0  0  0  0  0  0  0  0  0  0  0
    1.1715  -10.0781    0.0000 C   0  0  0  0  0  0  0  0  0  0  0  0
    0.7523   -9.3675    0.0000 C   0  0  0  0  0  0  0  0  0  0  0  0
    1.1581   -8.6492    0.0000 C   0  0  0  0  0  0  0  0  0  0  0  0
    0.7389   -7.9386    0.0000 O   0  0  0  0  0  0  0  0  0  0  0  0
    1.9831   -8.6414    0.0000 O   0  0  0  0  0  0  0  0  0  0  0  0
    1.9965  -10.0703    0.0000 O   0  0  0  0  0  0  0  0  0  0  0  0
    8.6733   -9.6747    0.0000 H   0  0  0  0  0  0  0  0  0  0  0  0
    9.3878   -8.4372    0.0000 H   0  0  0  0  0  0  0  0  0  0  0  0
  1  2  1  0  0  0  0
  2  3  1  0  0  0  0
  3  4  1  0  0  0  0
  4  5  1  0  0  0  0
  5  6  1  0  0  0  0
  1  6  1  0  0  0  0
  3  7  1  6  0  0  0
  4  8  1  6  0  0  0
  5  9  1  1  0  0  0
  6 10  1  6  0  0  0
 12 13  1  0  0  0  0
 13 14  1  0  0  0  0
 14 15  1  0  0  0  0
 15 16  1  0  0  0  0
 16 17  1  0  0  0  0
 12 17  1  0  0  0  0
 20 21  1  0  0  0  0
 21 22  1  0  0  0  0
 22 23  1  0  0  0  0
 23 24  1  0  0  0  0
 24 25  1  0  0  0  0
 20 25  1  0  0  0  0
 25 26  1  1  0  0  0
 24 27  1  6  0  0  0
 23 28  1  1  0  0  0
 22 29  1  6  0  0  0
 21 19  1  1  0  0  0
 18 19  1  0  0  0  0
 13 18  1  6  0  0  0
 16 30  1  1  0  0  0
 15 31  1  6  0  0  0
 33 34  1  0  0  0  0
 34 35  1  0  0  0  0
 35 36  1  0  0  0  0
 36 37  1  0  0  0  0
 37 38  1  0  0  0  0
 38 39  1  0  0  0  0
 39 40  1  0  0  0  0
 40 41  1  0  0  0  0
 41 42  1  0  0  0  0
 42 43  1  0  0  0  0
 43 44  1  0  0  0  0
 44 45  1  0  0  0  0
 45 46  1  0  0  0  0
 46 47  1  0  0  0  0
 47 48  1  0  0  0  0
 48 49  1  0  0  0  0
 44 49  1  0  0  0  0
 49 50  2  0  0  0  0
 41 50  1  0  0  0  0
 50 51  1  0  0  0  0
 51 52  2  0  0  0  0
 52 53  1  0  0  0  0
 40 53  1  0  0  0  0
 53 54  1  0  0  0  0
 37 54  1  0  0  0  0
 33 54  1  0  0  0  0
 54 55  1  1  0  0  0
 47 56  1  1  0  0  0
 47 57  1  6  0  0  0
 41 58  1  6  0  0  0
 40 59  1  1  0  0  0
 36 60  1  1  0  0  0
 61 62  1  0  0  0  0
 44 61  1  1  0  0  0
 63 64  1  0  0  0  0
 36 63  1  6  0  0  0
 43 65  1  1  0  0  0
 35 32  1  1  0  0  0
 17 32  1  6  0  0  0
 14 11  1  1  0  0  0
  2 11  1  1  0  0  0
 26 66  1  0  0  0  0
 66 67  1  0  0  0  0
 67 68  1  0  0  0  0
 68 69  1  0  0  0  0
 69 70  1  0  0  0  0
 69 71  2  0  0  0  0
 67 72  2  0  0  0  0
 37 73  1  6  0  0  0
 53 74  1  6  0  0  0
M  END
>  <cdx:fragmentId>
225882

$$$$
