99921.cdx
  Mrv1902 05222410222D          

 25 26  0  0  0  0            999 V2000
    8.9784   -8.8772    0.0000 C   0  0  0  0  0  0  0  0  0  0  0  0
    8.2639   -9.2897    0.0000 C   0  0  0  0  0  0  0  0  0  0  0  0
    7.5494   -8.8772    0.0000 C   0  0  0  0  0  0  0  0  0  0  0  0
    6.8350   -9.2897    0.0000 C   0  0  0  0  0  0  0  0  0  0  0  0
    8.9784   -8.0522    0.0000 O   0  0  0  0  0  0  0  0  0  0  0  0
    9.6929   -9.2897    0.0000 O   0  0  0  0  0  0  0  0  0  0  0  0
    6.1205   -8.8772    0.0000 C   0  0  0  0  0  0  0  0  0  0  0  0
    5.4060   -9.2897    0.0000 C   0  0  0  0  0  0  0  0  0  0  0  0
    4.6916   -8.8772    0.0000 C   0  0  0  0  0  0  0  0  0  0  0  0
    4.6916   -8.0522    0.0000 C   0  0  0  0  0  0  0  0  0  0  0  0
    5.4060   -7.6397    0.0000 C   0  0  0  0  0  0  0  0  0  0  0  0
    6.1205   -8.0522    0.0000 C   0  0  0  0  0  0  0  0  0  0  0  0
    3.9771   -7.6397    0.0000 O   0  0  0  0  0  0  0  0  0  0  0  0
    3.2626   -8.0522    0.0000 C   0  0  0  0  0  0  0  0  0  0  0  0
    2.5482   -7.6397    0.0000 C   0  0  0  0  0  0  0  0  0  0  0  0
    3.9771   -9.2897    0.0000 O   0  0  0  0  0  0  0  0  0  0  0  0
    3.2626   -8.8772    0.0000 C   0  0  0  0  0  0  0  0  0  0  0  0
    2.5482   -9.2897    0.0000 C   0  0  0  0  0  0  0  0  0  0  0  0
   10.4073   -8.8772    0.0000 C   0  0  0  0  0  0  0  0  0  0  0  0
   10.4073   -8.0522    0.0000 C   0  0  0  0  0  0  0  0  0  0  0  0
   11.8363   -8.0522    0.0000 C   0  0  0  0  0  0  0  0  0  0  0  0
   11.1218   -9.2897    0.0000 C   0  0  0  0  0  0  0  0  0  0  0  0
   11.1218   -7.6397    0.0000 C   0  0  0  0  0  0  0  0  0  0  0  0
   11.8363   -8.8772    0.0000 C   0  0  0  0  0  0  0  0  0  0  0  0
    9.6929   -7.6397    0.0000 C   0  0  0  0  0  0  0  0  0  0  0  0
  1  2  1  0  0  0  0
  2  3  2  3  0  0  0
  3  4  1  0  0  0  0
  1  5  2  0  0  0  0
  1  6  1  0  0  0  0
  7  8  1  0  0  0  0
  8  9  2  0  0  0  0
  9 10  1  0  0  0  0
 10 11  2  0  0  0  0
 11 12  1  0  0  0  0
  7 12  2  0  0  0  0
 14 15  1  0  0  0  0
 13 14  1  0  0  0  0
 10 13  1  0  0  0  0
 17 18  1  0  0  0  0
 16 17  1  0  0  0  0
  9 16  1  0  0  0  0
  4  7  1  0  0  0  0
 19 20  1  0  0  0  0
 19 22  2  0  0  0  0
 20 23  2  0  0  0  0
 21 23  1  0  0  0  0
 21 24  2  0  0  0  0
 22 24  1  0  0  0  0
 20 25  1  0  0  0  0
  6 19  1  0  0  0  0
M  END
>  <cdx:fragmentId>
17

$$$$
