99928.cdx
  Mrv1902 05222410252D          

 74 81  0  0  0  0            999 V2000
    3.1082   -6.0344    0.0000 O   0  0  0  0  0  0  0  0  0  0  0  0
    2.3888   -7.2690    0.0000 C   0  0  0  0  0  0  0  0  0  0  0  0
    3.1049   -6.8594    0.0000 C   0  0  0  0  0  0  0  0  0  0  0  0
   13.1223  -10.9457    0.0000 O   0  0  0  0  0  0  0  0  0  0  0  0
   10.2644  -10.1335    0.0000 C   0  0  0  0  0  0  0  0  0  0  0  0
    8.8318  -10.1399    0.0000 C   0  0  0  0  0  0  0  0  0  0  0  0
    2.3998   -9.7561    0.0000 O   0  0  0  0  0  0  0  0  0  0  0  0
    0.9746  -10.5875    0.0000 O   0  0  0  0  0  0  0  0  0  0  0  0
    2.4145  -13.0560    0.0000 C   0  0  0  0  0  0  0  0  0  0  0  0
    7.3955   -8.4963    0.0000 O   0  0  0  0  0  0  0  0  0  0  0  0
    5.9555   -6.0277    0.0000 O   0  0  0  0  0  0  0  0  0  0  0  0
   10.9771  -11.3678    0.0000 C   0  0  0  0  0  0  0  0  0  0  0  0
    0.9819  -12.2374    0.0000 O   0  0  0  0  0  0  0  0  0  0  0  0
    5.2724  -13.0433    0.0000 O   0  0  0  0  0  0  0  0  0  0  0  0
    7.3882   -6.8463    0.0000 O   0  0  0  0  0  0  0  0  0  0  0  0
   13.8312   -9.7050    0.0000 O   0  0  0  0  0  0  0  0  0  0  0  0
   13.1186  -10.1207    0.0000 C   0  0  0  0  0  0  0  0  0  0  0  0
    3.8177   -7.2747    0.0000 O   0  0  0  0  0  0  0  0  0  0  0  0
    4.5303   -6.8590    0.0000 C   0  0  0  0  0  0  0  0  0  0  0  0
   13.1149   -9.2957    0.0000 C   0  0  0  0  0  0  0  0  0  0  0  0
   13.1112   -8.4707    0.0000 C   0  0  0  0  0  0  0  0  0  0  0  0
   12.3949   -8.0614    0.0000 C   0  0  1  0  0  0  0  0  0  0  0  0
   11.6823   -8.4771    0.0000 C   0  0  0  0  0  0  0  0  0  0  0  0
   11.6934  -10.9521    0.0000 C   0  0  0  0  0  0  0  0  0  0  0  0
   12.4060  -10.5364    0.0000 C   0  0  1  0  0  0  0  0  0  0  0  0
   12.4023   -9.7114    0.0000 C   0  0  1  0  0  0  0  0  0  0  0  0
   11.6860   -9.3021    0.0000 C   0  0  2  0  0  0  0  0  0  0  0  0
   10.9771  -10.5428    0.0000 C   0  0  1  0  0  0  0  0  0  0  0  0
   10.9734   -9.7178    0.0000 C   0  0  0  0  0  0  0  0  0  0  0  0
   10.2571   -9.3085    0.0000 C   0  0  0  0  0  0  0  0  0  0  0  0
    9.5444   -9.7242    0.0000 C   0  0  0  0  0  0  0  0  0  0  0  0
    9.5555  -12.1992    0.0000 C   0  0  0  0  0  0  0  0  0  0  0  0
   10.2681  -11.7835    0.0000 C   0  0  0  0  0  0  0  0  0  0  0  0
   10.2644  -10.9585    0.0000 C   0  0  1  0  0  0  0  0  0  0  0  0
    9.5481  -10.5492    0.0000 C   0  0  1  0  0  0  0  0  0  0  0  0
    8.1266  -12.2055    0.0000 C   0  0  2  0  0  0  0  0  0  0  0  0
    8.8392  -11.7899    0.0000 C   0  0  1  0  0  0  0  0  0  0  0  0
    8.8355  -10.9649    0.0000 C   0  0  1  0  0  0  0  0  0  0  0  0
    8.1192  -10.5556    0.0000 C   0  0  0  0  0  0  0  0  0  0  0  0
    6.6976  -12.2119    0.0000 O   0  0  0  0  0  0  0  0  0  0  0  0
    7.4103  -11.7962    0.0000 C   0  0  1  0  0  0  0  0  0  0  0  0
    7.4066  -10.9712    0.0000 C   0  0  0  0  0  0  0  0  0  0  0  0
    2.4035  -10.5811    0.0000 C   0  0  2  0  0  0  0  0  0  0  0  0
    1.6909  -10.9968    0.0000 C   0  0  1  0  0  0  0  0  0  0  0  0
    1.6945  -11.8218    0.0000 C   0  0  2  0  0  0  0  0  0  0  0  0
    2.4109  -12.2311    0.0000 C   0  0  1  0  0  0  0  0  0  0  0  0
    3.1198  -10.9904    0.0000 C   0  0  1  0  0  0  0  0  0  0  0  0
    3.1235  -11.8154    0.0000 O   0  0  0  0  0  0  0  0  0  0  0  0
    3.8398  -12.2247    0.0000 O   0  0  0  0  0  0  0  0  0  0  0  0
    4.5524  -11.8090    0.0000 C   0  0  2  0  0  0  0  0  0  0  0  0
    5.2687  -12.2183    0.0000 C   0  0  2  0  0  0  0  0  0  0  0  0
    5.9813  -11.8026    0.0000 C   0  0  1  0  0  0  0  0  0  0  0  0
    5.9776  -10.9776    0.0000 O   0  0  0  0  0  0  0  0  0  0  0  0
    3.8324  -10.5747    0.0000 O   0  0  0  0  0  0  0  0  0  0  0  0
    4.5487  -10.9840    0.0000 C   0  0  2  0  0  0  0  0  0  0  0  0
    5.2613  -10.5683    0.0000 C   0  0  1  0  0  0  0  0  0  0  0  0
    5.2577   -9.7433    0.0000 C   0  0  0  0  0  0  0  0  0  0  0  0
    5.9703   -9.3276    0.0000 O   0  0  0  0  0  0  0  0  0  0  0  0
    5.2503   -8.0933    0.0000 O   0  0  0  0  0  0  0  0  0  0  0  0
    5.9666   -8.5026    0.0000 C   0  0  2  0  0  0  0  0  0  0  0  0
    6.6792   -8.0870    0.0000 C   0  0  1  0  0  0  0  0  0  0  0  0
    6.6755   -7.2620    0.0000 C   0  0  2  0  0  0  0  0  0  0  0  0
    5.9592   -6.8527    0.0000 C   0  0  1  0  0  0  0  0  0  0  0  0
    5.2466   -7.2683    0.0000 C   0  0  1  0  0  0  0  0  0  0  0  0
   11.9824   -7.3470    0.0000 C   0  0  0  0  0  0  0  0  0  0  0  0
    7.7141  -12.9200    0.0000 C   0  0  0  0  0  0  0  0  0  0  0  0
    8.5391  -12.9200    0.0000 C   0  0  0  0  0  0  0  0  0  0  0  0
   12.8074   -7.3470    0.0000 C   0  0  0  0  0  0  0  0  0  0  0  0
    1.6743   -6.8565    0.0000 C   0  0  0  0  0  0  0  0  0  0  0  0
    0.9598   -7.2690    0.0000 O   0  0  0  0  0  0  0  0  0  0  0  0
    1.6743   -6.0315    0.0000 O   0  0  0  0  0  0  0  0  0  0  0  0
    8.8392  -12.6149    0.0000 H   0  0  0  0  0  0  0  0  0  0  0  0
    9.5481  -11.3742    0.0000 H   0  0  0  0  0  0  0  0  0  0  0  0
   11.6860  -10.1271    0.0000 H   0  0  0  0  0  0  0  0  0  0  0  0
  3  1  2  0  0  0  0
  3  2  1  0  0  0  0
 18  3  1  0  0  0  0
 25  4  1  1  0  0  0
 34  5  1  1  0  0  0
 38  6  1  1  0  0  0
 43  7  1  1  0  0  0
 44  8  1  1  0  0  0
 46  9  1  1  0  0  0
 61 10  1  1  0  0  0
 63 11  1  1  0  0  0
 28 12  1  6  0  0  0
 45 13  1  6  0  0  0
 51 14  1  6  0  0  0
 62 15  1  6  0  0  0
 17 16  1  0  0  0  0
 26 17  1  1  0  0  0
 19 18  1  0  0  0  0
 64 19  1  6  0  0  0
 20 26  1  0  0  0  0
 21 20  1  0  0  0  0
 22 21  1  0  0  0  0
 23 22  1  0  0  0  0
 27 23  1  0  0  0  0
 24 28  1  0  0  0  0
 25 24  1  0  0  0  0
 26 25  1  0  0  0  0
 27 26  1  0  0  0  0
 29 27  1  0  0  0  0
 28 34  1  0  0  0  0
 29 28  1  0  0  0  0
 30 29  2  0  0  0  0
 31 30  1  0  0  0  0
 35 31  1  0  0  0  0
 32 37  1  0  0  0  0
 33 32  1  0  0  0  0
 34 33  1  0  0  0  0
 35 34  1  0  0  0  0
 38 35  1  0  0  0  0
 36 41  1  0  0  0  0
 37 36  1  0  0  0  0
 38 37  1  0  0  0  0
 39 38  1  0  0  0  0
 42 39  1  0  0  0  0
 52 40  1  1  0  0  0
 41 40  1  1  0  0  0
 42 41  1  0  0  0  0
 43 47  1  0  0  0  0
 44 43  1  0  0  0  0
 45 44  1  0  0  0  0
 46 45  1  0  0  0  0
 48 46  1  0  0  0  0
 47 54  1  6  0  0  0
 48 47  1  0  0  0  0
 50 49  1  1  0  0  0
 50 55  1  0  0  0  0
 51 50  1  0  0  0  0
 52 51  1  0  0  0  0
 53 52  1  0  0  0  0
 56 53  1  0  0  0  0
 55 54  1  6  0  0  0
 56 55  1  0  0  0  0
 56 57  1  1  0  0  0
 58 57  1  0  0  0  0
 60 58  1  6  0  0  0
 59 64  1  0  0  0  0
 60 59  1  0  0  0  0
 61 60  1  0  0  0  0
 62 61  1  0  0  0  0
 63 62  1  0  0  0  0
 64 63  1  0  0  0  0
 22 65  1  1  0  0  0
 36 66  1  1  0  0  0
 36 67  1  6  0  0  0
 22 68  1  6  0  0  0
  2 69  1  0  0  0  0
 69 70  1  0  0  0  0
 69 71  2  0  0  0  0
 37 72  1  6  0  0  0
 35 73  1  6  0  0  0
 27 74  1  1  0  0  0
M  END
>  <cdx:fragmentId>
5

$$$$
