99926.cdx
  Mrv1902 05222410202D          

 19 20  0  0  0  0            999 V2000
    9.6963   -7.1132    0.0000 C   0  0  0  0  0  0  0  0  0  0  0  0
    8.9818   -6.7007    0.0000 O   0  0  0  0  0  0  0  0  0  0  0  0
    6.8384   -9.5882    0.0000 C   0  0  0  0  0  0  0  0  0  0  0  0
    6.8384  -10.4132    0.0000 C   0  0  0  0  0  0  0  0  0  0  0  0
    6.1239  -10.8257    0.0000 C   0  0  0  0  0  0  0  0  0  0  0  0
    5.4095  -10.4132    0.0000 C   0  0  0  0  0  0  0  0  0  0  0  0
    5.4095   -9.5882    0.0000 C   0  0  0  0  0  0  0  0  0  0  0  0
    6.1239   -9.1757    0.0000 C   0  0  0  0  0  0  0  0  0  0  0  0
    4.6950   -8.3507    0.0000 C   0  0  0  0  0  0  0  0  0  0  0  0
    5.4095   -7.9382    0.0000 C   0  0  0  0  0  0  0  0  0  0  0  0
    6.1239   -8.3507    0.0000 C   0  0  0  0  0  0  0  0  0  0  0  0
    6.1239   -6.7007    0.0000 O   0  0  0  0  0  0  0  0  0  0  0  0
    8.9818   -8.3507    0.0000 O   0  0  0  0  0  0  0  0  0  0  0  0
    7.5529   -8.3507    0.0000 C   0  0  0  0  0  0  0  0  0  0  0  0
    6.8384   -7.9382    0.0000 C   0  0  0  0  0  0  0  0  0  0  0  0
    6.8384   -7.1132    0.0000 C   0  0  0  0  0  0  0  0  0  0  0  0
    7.5529   -6.7007    0.0000 C   0  0  0  0  0  0  0  0  0  0  0  0
    8.2674   -7.1132    0.0000 C   0  0  0  0  0  0  0  0  0  0  0  0
    8.2674   -7.9382    0.0000 C   0  0  0  0  0  0  0  0  0  0  0  0
 18  2  1  0  0  0  0
  2  1  1  0  0  0  0
 15 11  1  0  0  0  0
 11  8  1  0  0  0  0
  8  3  2  0  0  0  0
  4  3  1  0  0  0  0
  5  4  2  0  0  0  0
  6  5  1  0  0  0  0
  7  6  2  0  0  0  0
  8  7  1  0  0  0  0
 10  9  2  0  0  0  0
 11 10  1  0  0  0  0
 16 12  2  0  0  0  0
 19 13  2  0  0  0  0
 19 14  1  0  0  0  0
 15 14  2  0  0  0  0
 16 15  1  0  0  0  0
 17 16  1  0  0  0  0
 18 17  2  0  0  0  0
 19 18  1  0  0  0  0
M  END
>  <cdx:fragmentId>
27

$$$$
