99927.cdx
  Mrv1902 05222410212D          

 63 70  0  0  0  0            999 V2000
    3.5961   -9.5182    0.0000 O   0  0  0  0  0  0  0  0  0  0  0  0
    3.5961  -10.3432    0.0000 C   0  0  2  0  0  0  0  0  0  0  0  0
    2.8816  -10.7557    0.0000 C   0  0  1  0  0  0  0  0  0  0  0  0
    2.1671  -10.3432    0.0000 C   0  0  2  0  0  0  0  0  0  0  0  0
    2.1671   -9.5182    0.0000 C   0  0  1  0  0  0  0  0  0  0  0  0
    2.8816   -9.1057    0.0000 C   0  0  1  0  0  0  0  0  0  0  0  0
    2.8816  -11.5807    0.0000 O   0  0  0  0  0  0  0  0  0  0  0  0
    1.4526  -10.7557    0.0000 O   0  0  0  0  0  0  0  0  0  0  0  0
    1.4526   -9.1057    0.0000 O   0  0  0  0  0  0  0  0  0  0  0  0
    2.8816   -8.2807    0.0000 C   0  0  0  0  0  0  0  0  0  0  0  0
    2.1671   -7.8682    0.0000 O   0  0  0  0  0  0  0  0  0  0  0  0
    4.3105  -10.7557    0.0000 O   0  0  0  0  0  0  0  0  0  0  0  0
    6.4539   -9.5182    0.0000 O   0  0  0  0  0  0  0  0  0  0  0  0
    6.4539  -10.3432    0.0000 C   0  0  2  0  0  0  0  0  0  0  0  0
    5.7395  -10.7557    0.0000 C   0  0  1  0  0  0  0  0  0  0  0  0
    5.0250  -10.3432    0.0000 C   0  0  2  0  0  0  0  0  0  0  0  0
    5.0250   -9.5182    0.0000 C   0  0  2  0  0  0  0  0  0  0  0  0
    5.7395   -9.1057    0.0000 C   0  0  1  0  0  0  0  0  0  0  0  0
    5.7395   -8.2807    0.0000 C   0  0  0  0  0  0  0  0  0  0  0  0
    7.1684  -10.7557    0.0000 O   0  0  0  0  0  0  0  0  0  0  0  0
   12.8842   -8.2807    0.0000 C   0  0  0  0  0  0  0  0  0  0  0  0
   12.8842   -9.1057    0.0000 C   0  0  2  0  0  0  0  0  0  0  0  0
   12.1697   -9.5182    0.0000 C   0  0  0  0  0  0  0  0  0  0  0  0
   11.4552   -9.1057    0.0000 C   0  0  1  0  0  0  0  0  0  0  0  0
   10.7408   -9.5182    0.0000 C   0  0  2  0  0  0  0  0  0  0  0  0
   10.7408  -10.3432    0.0000 C   0  0  0  0  0  0  0  0  0  0  0  0
   10.0263  -10.7557    0.0000 C   0  0  0  0  0  0  0  0  0  0  0  0
    9.3118  -10.3432    0.0000 C   0  0  1  0  0  0  0  0  0  0  0  0
    8.5974  -10.7557    0.0000 C   0  0  1  0  0  0  0  0  0  0  0  0
    7.8829  -10.3432    0.0000 C   0  0  2  0  0  0  0  0  0  0  0  0
    7.8829   -9.5182    0.0000 C   0  0  0  0  0  0  0  0  0  0  0  0
    8.5974   -9.1057    0.0000 C   0  0  0  0  0  0  0  0  0  0  0  0
    9.3118   -9.5182    0.0000 C   0  0  2  0  0  0  0  0  0  0  0  0
   10.0263   -9.1057    0.0000 C   0  0  1  0  0  0  0  0  0  0  0  0
   10.0263   -8.2807    0.0000 C   0  0  0  0  0  0  0  0  0  0  0  0
   10.7408   -7.8682    0.0000 C   0  0  0  0  0  0  0  0  0  0  0  0
   11.4552   -8.2807    0.0000 C   0  0  0  0  0  0  0  0  0  0  0  0
   12.1697   -7.8682    0.0000 C   0  0  2  0  0  0  0  0  0  0  0  0
   12.1697   -7.0432    0.0000 C   0  0  0  0  0  0  0  0  0  0  0  0
   12.8842   -6.6307    0.0000 C   0  0  2  0  0  0  0  0  0  0  0  0
   13.5987   -7.0432    0.0000 C   0  0  0  0  0  0  0  0  0  0  0  0
   13.5987   -7.8682    0.0000 C   0  0  0  0  0  0  0  0  0  0  0  0
   12.4717   -5.9162    0.0000 C   0  0  0  0  0  0  0  0  0  0  0  0
   13.2967   -5.9162    0.0000 C   0  0  0  0  0  0  0  0  0  0  0  0
    9.3118   -8.6932    0.0000 C   0  0  0  0  0  0  0  0  0  0  0  0
    9.0099  -11.4701    0.0000 C   0  0  0  0  0  0  0  0  0  0  0  0
    8.1849  -11.4701    0.0000 C   0  0  0  0  0  0  0  0  0  0  0  0
   10.7408   -8.6932    0.0000 C   0  0  0  0  0  0  0  0  0  0  0  0
   11.4552   -9.9307    0.0000 C   0  0  0  0  0  0  0  0  0  0  0  0
   13.5987   -9.5182    0.0000 O   0  0  0  0  0  0  0  0  0  0  0  0
    4.3105   -9.1057    0.0000 O   0  0  0  0  0  0  0  0  0  0  0  0
    5.7395  -11.5807    0.0000 O   0  0  0  0  0  0  0  0  0  0  0  0
   11.4552   -7.4557    0.0000 O   0  0  0  0  0  0  0  0  0  0  0  0
   12.8842   -7.4557    0.0000 C   0  0  0  0  0  0  0  0  0  0  0  0
    2.1671   -7.0432    0.0000 C   0  0  0  0  0  0  0  0  0  0  0  0
    1.4526   -6.6307    0.0000 C   0  0  0  0  0  0  0  0  0  0  0  0
    1.4526   -5.8057    0.0000 C   0  0  0  0  0  0  0  0  0  0  0  0
    0.7382   -5.3932    0.0000 O   0  0  0  0  0  0  0  0  0  0  0  0
    2.1671   -5.3932    0.0000 O   0  0  0  0  0  0  0  0  0  0  0  0
    2.8816   -6.6307    0.0000 O   0  0  0  0  0  0  0  0  0  0  0  0
   12.1697   -8.6932    0.0000 H   0  0  0  0  0  0  0  0  0  0  0  0
    9.3118  -11.1682    0.0000 H   0  0  0  0  0  0  0  0  0  0  0  0
   10.0263   -9.9307    0.0000 H   0  0  0  0  0  0  0  0  0  0  0  0
  1  2  1  0  0  0  0
  2  3  1  0  0  0  0
  3  4  1  0  0  0  0
  4  5  1  0  0  0  0
  5  6  1  0  0  0  0
  1  6  1  0  0  0  0
  3  7  1  6  0  0  0
  4  8  1  1  0  0  0
  5  9  1  6  0  0  0
 10 11  1  0  0  0  0
  6 10  1  1  0  0  0
 13 14  1  0  0  0  0
 14 15  1  0  0  0  0
 15 16  1  0  0  0  0
 16 17  1  0  0  0  0
 17 18  1  0  0  0  0
 13 18  1  0  0  0  0
 18 19  1  1  0  0  0
 21 22  1  0  0  0  0
 22 23  1  0  0  0  0
 23 24  1  0  0  0  0
 24 25  1  0  0  0  0
 25 26  1  0  0  0  0
 26 27  1  0  0  0  0
 27 28  1  0  0  0  0
 28 29  1  0  0  0  0
 29 30  1  0  0  0  0
 30 31  1  0  0  0  0
 31 32  1  0  0  0  0
 32 33  1  0  0  0  0
 33 34  1  0  0  0  0
 34 35  1  0  0  0  0
 35 36  2  0  0  0  0
 36 37  1  0  0  0  0
 37 38  1  0  0  0  0
 38 39  1  0  0  0  0
 39 40  1  0  0  0  0
 40 41  1  0  0  0  0
 41 42  1  0  0  0  0
 21 42  1  0  0  0  0
 21 38  1  0  0  0  0
 24 37  1  0  0  0  0
 25 34  1  0  0  0  0
 28 33  1  0  0  0  0
 40 43  1  1  0  0  0
 40 44  1  6  0  0  0
 33 45  1  1  0  0  0
 29 46  1  6  0  0  0
 29 47  1  1  0  0  0
 25 48  1  1  0  0  0
 24 49  1  6  0  0  0
 22 50  1  1  0  0  0
 30 20  1  1  0  0  0
 14 20  1  1  0  0  0
 17 51  1  1  0  0  0
 15 52  1  6  0  0  0
 16 12  1  1  0  0  0
  2 12  1  1  0  0  0
 37 53  1  0  0  0  0
 21 54  1  0  0  0  0
 54 53  1  0  0  0  0
 11 55  1  0  0  0  0
 55 56  1  0  0  0  0
 56 57  1  0  0  0  0
 57 58  1  0  0  0  0
 57 59  2  0  0  0  0
 55 60  2  0  0  0  0
 38 61  1  1  0  0  0
 28 62  1  6  0  0  0
 34 63  1  6  0  0  0
M  END
>  <cdx:fragmentId>
139000

$$$$
