99925.cdx
  Mrv1902 05222410212D          

 23 22  0  0  0  0            999 V2000
   12.0034   -7.1274    0.0000 O   0  0  0  0  0  0  0  0  0  0  0  0
   11.2889   -6.7149    0.0000 C   0  0  0  0  0  0  0  0  0  0  0  0
   10.5745   -7.1274    0.0000 C   0  0  0  0  0  0  0  0  0  0  0  0
   11.2889   -5.8899    0.0000 O   0  0  0  0  0  0  0  0  0  0  0  0
    9.8600   -6.7149    0.0000 C   0  0  0  0  0  0  0  0  0  0  0  0
    9.1455   -7.1274    0.0000 C   0  0  0  0  0  0  0  0  0  0  0  0
    6.9736   -6.7149    0.0000 C   0  0  0  0  0  0  0  0  0  0  0  0
    6.2591   -7.1274    0.0000 C   0  0  0  0  0  0  0  0  0  0  0  0
    5.5446   -6.7149    0.0000 N   0  0  0  0  0  0  0  0  0  0  0  0
    6.2591   -7.9524    0.0000 O   0  0  0  0  0  0  0  0  0  0  0  0
    4.8301   -7.1274    0.0000 C   0  0  2  0  0  0  0  0  0  0  0  0
    4.1157   -6.7149    0.0000 C   0  0  0  0  0  0  0  0  0  0  0  0
    3.4012   -7.1274    0.0000 O   0  0  0  0  0  0  0  0  0  0  0  0
    4.1157   -5.8899    0.0000 O   0  0  0  0  0  0  0  0  0  0  0  0
    4.8301   -7.9524    0.0000 C   0  0  0  0  0  0  0  0  0  0  0  0
    4.1157   -8.3649    0.0000 C   0  0  0  0  0  0  0  0  0  0  0  0
    4.1157   -9.1899    0.0000 C   0  0  0  0  0  0  0  0  0  0  0  0
    3.4012   -9.6024    0.0000 N   0  0  0  0  0  0  0  0  0  0  0  0
    3.4012  -10.4274    0.0000 C   0  0  0  0  0  0  0  0  0  0  0  0
    4.1157  -10.8399    0.0000 N   0  0  0  0  0  0  0  0  0  0  0  0
    2.6867  -10.8399    0.0000 N   0  0  0  0  0  0  0  0  0  0  0  0
    8.4311   -6.7149    0.0000 C   0  0  0  0  0  0  0  0  0  0  0  0
    7.7166   -7.1274    0.0000 C   0  0  0  0  0  0  0  0  0  0  0  0
  1  2  1  0  0  0  0
  2  3  1  0  0  0  0
  2  4  2  0  0  0  0
  3  5  1  0  0  0  0
  5  6  1  0  0  0  0
  7  8  1  0  0  0  0
  8  9  1  0  0  0  0
  8 10  2  0  0  0  0
 11  9  1  1  0  0  0
 11 12  1  0  0  0  0
 12 13  1  0  0  0  0
 12 14  2  0  0  0  0
 11 15  1  0  0  0  0
 15 16  1  0  0  0  0
 16 17  1  0  0  0  0
 17 18  1  0  0  0  0
 18 19  2  0  0  0  0
 19 20  1  0  0  0  0
 19 21  1  0  0  0  0
  6 22  1  0  0  0  0
 22 23  1  0  0  0  0
  7 23  1  0  0  0  0
M  END
>  <cdx:fragmentId>
86

$$$$
