99934.cdx
  Mrv1902 05222410222D          

 10 10  0  0  0  0            999 V2000
    7.1956   -7.2272    0.0000 O   0  0  0  0  0  0  0  0  0  0  0  0
    7.9101   -7.6397    0.0000 C   0  0  0  0  0  0  0  0  0  0  0  0
    7.9101   -8.4647    0.0000 C   0  0  1  0  0  0  0  0  0  0  0  0
    7.1956   -8.8772    0.0000 C   0  0  2  0  0  0  0  0  0  0  0  0
    6.4812   -8.4647    0.0000 C   0  0  1  0  0  0  0  0  0  0  0  0
    6.4812   -7.6397    0.0000 C   0  0  0  0  0  0  0  0  0  0  0  0
    8.6246   -7.2272    0.0000 O   0  0  0  0  0  0  0  0  0  0  0  0
    8.6246   -8.8772    0.0000 O   0  0  0  0  0  0  0  0  0  0  0  0
    7.1956   -9.7022    0.0000 O   0  0  0  0  0  0  0  0  0  0  0  0
    5.7667   -8.8772    0.0000 O   0  0  0  0  0  0  0  0  0  0  0  0
  1  2  1  0  0  0  0
  2  3  1  0  0  0  0
  3  4  1  0  0  0  0
  4  5  1  0  0  0  0
  5  6  1  0  0  0  0
  1  6  1  0  0  0  0
  2  7  1  0  0  0  0
  3  8  1  6  0  0  0
  4  9  1  1  0  0  0
  5 10  1  6  0  0  0
M  END
>  <cdx:fragmentId>
5

$$$$
