99933.cdx
  Mrv1902 05222410212D          

 11 11  0  0  0  0            999 V2000
    6.5584   -8.6409    0.0000 C   0  0  1  0  0  0  0  0  0  0  0  0
    7.2737   -8.2298    0.0000 C   0  0  1  0  0  0  0  0  0  0  0  0
    7.9874   -8.6436    0.0000 C   0  0  0  0  0  0  0  0  0  0  0  0
    7.9858   -9.4686    0.0000 C   0  0  0  0  0  0  0  0  0  0  0  0
    7.2706   -9.8798    0.0000 C   0  0  2  0  0  0  0  0  0  0  0  0
    6.5569   -9.4659    0.0000 C   0  0  0  0  0  0  0  0  0  0  0  0
    5.8448   -8.2270    0.0000 O   0  0  0  0  0  0  0  0  0  0  0  0
    7.9905   -6.9936    0.0000 C   0  0  0  0  0  0  0  0  0  0  0  0
    7.2753   -7.4048    0.0000 C   0  0  0  0  0  0  0  0  0  0  0  0
    6.5616   -6.9909    0.0000 C   0  0  0  0  0  0  0  0  0  0  0  0
    7.2690  -10.7048    0.0000 C   0  0  0  0  0  0  0  0  0  0  0  0
  1  2  1  0  0  0  0
  2  3  1  0  0  0  0
  3  4  1  0  0  0  0
  4  5  1  0  0  0  0
  5  6  1  0  0  0  0
  1  6  1  0  0  0  0
  1  7  1  1  0  0  0
  8  9  1  0  0  0  0
  9 10  1  0  0  0  0
  2  9  1  6  0  0  0
  5 11  1  1  0  0  0
M  END
>  <cdx:fragmentId>
5

$$$$
