99939.cdx
  Mrv1902 05222410242D          

 57 63  0  0  0  0            999 V2000
    5.9502   -9.2469    0.0000 C   0  0  0  0  0  0  0  0  0  0  0  0
    5.9502  -10.0719    0.0000 C   0  0  1  0  0  0  0  0  0  0  0  0
    6.6646  -10.4844    0.0000 C   0  0  1  0  0  0  0  0  0  0  0  0
    7.3791  -10.0719    0.0000 C   0  0  1  0  0  0  0  0  0  0  0  0
    7.3791   -9.2469    0.0000 C   0  0  2  0  0  0  0  0  0  0  0  0
    6.6646   -8.8344    0.0000 C   0  0  0  0  0  0  0  0  0  0  0  0
    8.0936  -10.4844    0.0000 C   0  0  0  0  0  0  0  0  0  0  0  0
    8.8080  -10.0719    0.0000 C   0  0  0  0  0  0  0  0  0  0  0  0
    8.8080   -9.2469    0.0000 C   0  0  2  0  0  0  0  0  0  0  0  0
    8.0936   -8.8344    0.0000 C   0  0  2  0  0  0  0  0  0  0  0  0
    9.5225   -8.8344    0.0000 C   0  0  1  0  0  0  0  0  0  0  0  0
    9.5225   -8.0094    0.0000 C   0  0  0  0  0  0  0  0  0  0  0  0
    8.8080   -7.5969    0.0000 C   0  0  0  0  0  0  0  0  0  0  0  0
    8.0936   -8.0094    0.0000 C   0  0  0  0  0  0  0  0  0  0  0  0
   10.2370   -9.2469    0.0000 C   0  0  0  0  0  0  0  0  0  0  0  0
   10.9515   -8.8344    0.0000 C   0  0  1  0  0  0  0  0  0  0  0  0
   10.9515   -8.0094    0.0000 C   0  0  2  0  0  0  0  0  0  0  0  0
   10.2370   -7.5969    0.0000 C   0  0  0  0  0  0  0  0  0  0  0  0
   11.6659   -7.5969    0.0000 C   0  0  0  0  0  0  0  0  0  0  0  0
   11.6659   -6.7719    0.0000 C   0  0  0  0  0  0  0  0  0  0  0  0
   10.9515   -6.3594    0.0000 C   0  0  1  0  0  0  0  0  0  0  0  0
   10.2370   -6.7719    0.0000 C   0  0  0  0  0  0  0  0  0  0  0  0
    5.2357  -10.4844    0.0000 O   0  0  0  0  0  0  0  0  0  0  0  0
    6.2521  -11.1988    0.0000 C   0  0  0  0  0  0  0  0  0  0  0  0
    7.3791   -8.4219    0.0000 C   0  0  0  0  0  0  0  0  0  0  0  0
    8.8080   -8.4219    0.0000 C   0  0  0  0  0  0  0  0  0  0  0  0
   10.5390   -5.6449    0.0000 C   0  0  0  0  0  0  0  0  0  0  0  0
    7.0771  -11.1988    0.0000 C   0  0  0  0  0  0  0  0  0  0  0  0
    9.5225   -9.6594    0.0000 C   0  0  0  0  0  0  0  0  0  0  0  0
   11.6659   -9.2469    0.0000 O   0  0  0  0  0  0  0  0  0  0  0  0
   11.3640   -5.6449    0.0000 C   0  0  0  0  0  0  0  0  0  0  0  0
    3.8022   -8.8266    0.0000 C   0  0  2  0  0  0  0  0  0  0  0  0
    3.0878   -9.2391    0.0000 C   0  0  2  0  0  0  0  0  0  0  0  0
    3.0878  -10.0641    0.0000 C   0  0  1  0  0  0  0  0  0  0  0  0
    3.8022  -10.4766    0.0000 C   0  0  2  0  0  0  0  0  0  0  0  0
    4.5167  -10.0641    0.0000 C   0  0  1  0  0  0  0  0  0  0  0  0
    4.5167   -9.2391    0.0000 O   0  0  0  0  0  0  0  0  0  0  0  0
    3.8022   -8.0016    0.0000 C   0  0  0  0  0  0  0  0  0  0  0  0
    2.3733  -10.4766    0.0000 O   0  0  0  0  0  0  0  0  0  0  0  0
    2.3733   -8.8266    0.0000 O   0  0  0  0  0  0  0  0  0  0  0  0
    3.8023  -11.3016    0.0000 O   0  0  0  0  0  0  0  0  0  0  0  0
   11.6659   -8.4219    0.0000 C   0  0  0  0  0  0  0  0  0  0  0  0
   12.3804   -8.0094    0.0000 O   0  0  0  0  0  0  0  0  0  0  0  0
    3.0878   -7.5891    0.0000 O   0  0  0  0  0  0  0  0  0  0  0  0
    3.7971   -5.5261    0.0000 C   0  0  2  0  0  0  0  0  0  0  0  0
    3.0824   -5.1140    0.0000 C   0  0  2  0  0  0  0  0  0  0  0  0
    2.3682   -5.5269    0.0000 C   0  0  1  0  0  0  0  0  0  0  0  0
    2.3687   -6.3519    0.0000 C   0  0  2  0  0  0  0  0  0  0  0  0
    3.0834   -6.7640    0.0000 C   0  0  1  0  0  0  0  0  0  0  0  0
    3.7977   -6.3511    0.0000 O   0  0  0  0  0  0  0  0  0  0  0  0
    4.5114   -5.1131    0.0000 C   0  0  0  0  0  0  0  0  0  0  0  0
    1.6535   -5.1149    0.0000 O   0  0  0  0  0  0  0  0  0  0  0  0
    3.0819   -4.2890    0.0000 O   0  0  0  0  0  0  0  0  0  0  0  0
    1.6545   -6.7649    0.0000 O   0  0  0  0  0  0  0  0  0  0  0  0
    4.5109   -4.2881    0.0000 O   0  0  0  0  0  0  0  0  0  0  0  0
    7.3791  -10.8969    0.0000 H   0  0  0  0  0  0  0  0  0  0  0  0
    8.0936   -9.6594    0.0000 H   0  0  0  0  0  0  0  0  0  0  0  0
  1  2  1  0  0  0  0
  2  3  1  0  0  0  0
  3  4  1  0  0  0  0
  4  5  1  0  0  0  0
  5  6  1  0  0  0  0
  6  1  1  0  0  0  0
  4  7  1  0  0  0  0
  7  8  1  0  0  0  0
  8  9  1  0  0  0  0
  9 10  1  0  0  0  0
 10  5  1  0  0  0  0
  9 11  1  0  0  0  0
 11 12  1  0  0  0  0
 12 13  1  0  0  0  0
 13 14  2  0  0  0  0
 14 10  1  0  0  0  0
 11 15  1  0  0  0  0
 15 16  1  0  0  0  0
 16 17  1  0  0  0  0
 17 18  1  0  0  0  0
 18 12  2  0  0  0  0
 17 19  1  0  0  0  0
 19 20  1  0  0  0  0
 20 21  1  0  0  0  0
 21 22  1  0  0  0  0
 22 18  1  0  0  0  0
  2 23  1  1  0  0  0
  3 24  1  1  0  0  0
  5 25  1  1  0  0  0
  9 26  1  1  0  0  0
 21 27  1  1  0  0  0
  3 28  1  6  0  0  0
 11 29  1  6  0  0  0
 16 30  1  1  0  0  0
 21 31  1  6  0  0  0
 32 33  1  0  0  0  0
 33 34  1  0  0  0  0
 34 35  1  0  0  0  0
 35 36  1  0  0  0  0
 36 37  1  0  0  0  0
 37 32  1  0  0  0  0
 32 38  1  1  0  0  0
 34 39  1  1  0  0  0
 33 40  1  6  0  0  0
 35 41  1  6  0  0  0
 36 23  1  1  0  0  0
 17 42  1  1  0  0  0
 42 43  1  0  0  0  0
 38 44  1  0  0  0  0
 45 46  1  0  0  0  0
 46 47  1  0  0  0  0
 47 48  1  0  0  0  0
 48 49  1  0  0  0  0
 49 50  1  0  0  0  0
 50 45  1  0  0  0  0
 45 51  1  1  0  0  0
 47 52  1  1  0  0  0
 46 53  1  6  0  0  0
 48 54  1  6  0  0  0
 51 55  1  0  0  0  0
 49 44  1  1  0  0  0
  4 56  1  6  0  0  0
 10 57  1  6  0  0  0
M  END
>  <cdx:fragmentId>
5

$$$$
