99932.cdx
  Mrv1902 05222410202D          

 75 83  0  0  0  0            999 V2000
    2.6001   -9.1923    0.0000 O   0  0  0  0  0  0  0  0  0  0  0  0
    1.3673   -8.4699    0.0000 C   0  0  0  0  0  0  0  0  0  0  0  0
    1.7751   -9.1870    0.0000 C   0  0  0  0  0  0  0  0  0  0  0  0
   11.0572   -7.7427    0.0000 C   0  0  0  0  0  0  0  0  0  0  0  0
    9.6295   -7.7405    0.0000 C   0  0  0  0  0  0  0  0  0  0  0  0
    4.6326   -4.8453    0.0000 O   0  0  0  0  0  0  0  0  0  0  0  0
    3.1910  -13.0931    0.0000 O   0  0  0  0  0  0  0  0  0  0  0  0
   11.7723   -8.9813    0.0000 C   0  0  0  0  0  0  0  0  0  0  0  0
    3.2024   -5.6681    0.0000 O   0  0  0  0  0  0  0  0  0  0  0  0
    3.1999   -7.3181    0.0000 O   0  0  0  0  0  0  0  0  0  0  0  0
    6.0603   -5.6725    0.0000 C   0  0  0  0  0  0  0  0  0  0  0  0
    1.7634  -12.2659    0.0000 O   0  0  0  0  0  0  0  0  0  0  0  0
    4.6212  -12.2703    0.0000 O   0  0  0  0  0  0  0  0  0  0  0  0
    9.3233  -10.5170    0.0000 C   0  0  0  0  0  0  0  0  0  0  0  0
    8.4983  -10.5157    0.0000 C   0  0  0  0  0  0  0  0  0  0  0  0
    1.3580   -9.8988    0.0000 O   0  0  0  0  0  0  0  0  0  0  0  0
    1.7659  -10.6159    0.0000 C   0  0  0  0  0  0  0  0  0  0  0  0
   13.9176   -6.9221    0.0000 C   0  0  0  0  0  0  0  0  0  0  0  0
   13.9189   -6.0971    0.0000 C   0  0  0  0  0  0  0  0  0  0  0  0
   13.2050   -5.6835    0.0000 C   0  0  1  0  0  0  0  0  0  0  0  0
   12.4899   -6.0949    0.0000 C   0  0  0  0  0  0  0  0  0  0  0  0
   12.4861   -8.5699    0.0000 C   0  0  0  0  0  0  0  0  0  0  0  0
   13.2012   -8.1585    0.0000 C   0  0  1  0  0  0  0  0  0  0  0  0
   13.2025   -7.3335    0.0000 C   0  0  0  0  0  0  0  0  0  0  0  0
   12.4887   -6.9199    0.0000 C   0  0  2  0  0  0  0  0  0  0  0  0
   11.7723   -8.1563    0.0000 C   0  0  1  0  0  0  0  0  0  0  0  0
   11.7735   -7.3313    0.0000 C   0  0  0  0  0  0  0  0  0  0  0  0
   11.0597   -6.9177    0.0000 C   0  0  0  0  0  0  0  0  0  0  0  0
   10.3446   -7.3291    0.0000 C   0  0  0  0  0  0  0  0  0  0  0  0
   10.3408   -9.8041    0.0000 C   0  0  0  0  0  0  0  0  0  0  0  0
   11.0559   -9.3927    0.0000 C   0  0  0  0  0  0  0  0  0  0  0  0
   11.0572   -8.5677    0.0000 C   0  0  1  0  0  0  0  0  0  0  0  0
   10.3433   -8.1541    0.0000 C   0  0  1  0  0  0  0  0  0  0  0  0
    8.9119   -9.8019    0.0000 C   0  0  1  0  0  0  0  0  0  0  0  0
    9.6270   -9.3905    0.0000 C   0  0  1  0  0  0  0  0  0  0  0  0
    9.6282   -8.5655    0.0000 C   0  0  1  0  0  0  0  0  0  0  0  0
    8.9144   -8.1519    0.0000 C   0  0  0  0  0  0  0  0  0  0  0  0
    7.4829   -9.7997    0.0000 O   0  0  0  0  0  0  0  0  0  0  0  0
    8.1980   -9.3883    0.0000 C   0  0  1  0  0  0  0  0  0  0  0  0
    8.1993   -8.5633    0.0000 C   0  0  0  0  0  0  0  0  0  0  0  0
    7.4855   -8.1497    0.0000 O   0  0  0  0  0  0  0  0  0  0  0  0
    5.3452   -6.0839    0.0000 C   0  0  1  0  0  0  0  0  0  0  0  0
    4.6314   -5.6703    0.0000 C   0  0  1  0  0  0  0  0  0  0  0  0
    3.9163   -6.0817    0.0000 C   0  0  2  0  0  0  0  0  0  0  0  0
    3.9150   -6.9067    0.0000 C   0  0  2  0  0  0  0  0  0  0  0  0
    6.0578   -7.3225    0.0000 O   0  0  0  0  0  0  0  0  0  0  0  0
    5.3440   -6.9089    0.0000 O   0  0  0  0  0  0  0  0  0  0  0  0
    4.6288   -7.3203    0.0000 C   0  0  1  0  0  0  0  0  0  0  0  0
    6.0540   -9.7975    0.0000 O   0  0  0  0  0  0  0  0  0  0  0  0
    6.7691   -9.3861    0.0000 C   0  0  2  0  0  0  0  0  0  0  0  0
    6.7704   -8.5611    0.0000 C   0  0  1  0  0  0  0  0  0  0  0  0
    6.0565   -8.1475    0.0000 C   0  0  2  0  0  0  0  0  0  0  0  0
    5.3402   -9.3839    0.0000 C   0  0  1  0  0  0  0  0  0  0  0  0
    5.3414   -8.5589    0.0000 C   0  0  1  0  0  0  0  0  0  0  0  0
    4.6276   -8.1453    0.0000 O   0  0  0  0  0  0  0  0  0  0  0  0
    4.6238  -10.6203    0.0000 O   0  0  0  0  0  0  0  0  0  0  0  0
    4.6250   -9.7953    0.0000 C   0  0  0  0  0  0  0  0  0  0  0  0
    3.9074  -11.8567    0.0000 C   0  0  1  0  0  0  0  0  0  0  0  0
    3.9087  -11.0317    0.0000 C   0  0  1  0  0  0  0  0  0  0  0  0
    3.1948  -10.6181    0.0000 O   0  0  0  0  0  0  0  0  0  0  0  0
    2.4797  -11.0295    0.0000 C   0  0  1  0  0  0  0  0  0  0  0  0
    2.4785  -11.8545    0.0000 C   0  0  2  0  0  0  0  0  0  0  0  0
    3.1923  -12.2681    0.0000 C   0  0  2  0  0  0  0  0  0  0  0  0
   12.7925   -4.9690    0.0000 C   0  0  0  0  0  0  0  0  0  0  0  0
   13.6175   -4.9690    0.0000 C   0  0  0  0  0  0  0  0  0  0  0  0
   11.7735   -6.5063    0.0000 O   0  0  0  0  0  0  0  0  0  0  0  0
   13.2025   -6.5085    0.0000 C   0  0  0  0  0  0  0  0  0  0  0  0
    8.9108  -11.2314    0.0000 O   0  0  0  0  0  0  0  0  0  0  0  0
   13.2012   -8.9835    0.0000 O   0  0  0  0  0  0  0  0  0  0  0  0
    1.7844   -7.7581    0.0000 C   0  0  0  0  0  0  0  0  0  0  0  0
    1.3765   -7.0410    0.0000 O   0  0  0  0  0  0  0  0  0  0  0  0
    2.6093   -7.7634    0.0000 O   0  0  0  0  0  0  0  0  0  0  0  0
   12.4887   -7.7449    0.0000 H   0  0  0  0  0  0  0  0  0  0  0  0
   10.3433   -8.9791    0.0000 H   0  0  0  0  0  0  0  0  0  0  0  0
    9.6270  -10.2155    0.0000 H   0  0  0  0  0  0  0  0  0  0  0  0
  3  1  2  0  0  0  0
  3  2  1  0  0  0  0
 16  3  1  0  0  0  0
 32  4  1  1  0  0  0
 36  5  1  1  0  0  0
 43  6  1  1  0  0  0
 63  7  1  1  0  0  0
 26  8  1  6  0  0  0
 44  9  1  6  0  0  0
 45 10  1  6  0  0  0
 42 11  1  6  0  0  0
 62 12  1  6  0  0  0
 58 13  1  6  0  0  0
 34 14  1  6  0  0  0
 34 15  1  1  0  0  0
 17 16  1  0  0  0  0
 61 17  1  1  0  0  0
 18 24  1  0  0  0  0
 19 18  1  0  0  0  0
 20 19  1  0  0  0  0
 21 20  1  0  0  0  0
 25 21  1  0  0  0  0
 22 26  1  0  0  0  0
 23 22  1  0  0  0  0
 24 23  1  0  0  0  0
 25 24  1  0  0  0  0
 27 25  1  0  0  0  0
 26 32  1  0  0  0  0
 27 26  1  0  0  0  0
 28 27  1  0  0  0  0
 29 28  2  0  0  0  0
 33 29  1  0  0  0  0
 30 35  1  0  0  0  0
 31 30  1  0  0  0  0
 32 31  1  0  0  0  0
 33 32  1  0  0  0  0
 36 33  1  0  0  0  0
 34 39  1  0  0  0  0
 35 34  1  0  0  0  0
 36 35  1  0  0  0  0
 37 36  1  0  0  0  0
 40 37  1  0  0  0  0
 50 38  1  6  0  0  0
 39 38  1  1  0  0  0
 40 39  1  0  0  0  0
 51 41  1  1  0  0  0
 42 47  1  0  0  0  0
 43 42  1  0  0  0  0
 44 43  1  0  0  0  0
 45 44  1  0  0  0  0
 48 45  1  0  0  0  0
 52 46  1  6  0  0  0
 48 47  1  0  0  0  0
 48 55  1  1  0  0  0
 49 53  1  0  0  0  0
 50 49  1  0  0  0  0
 51 50  1  0  0  0  0
 52 51  1  0  0  0  0
 54 52  1  0  0  0  0
 53 57  1  6  0  0  0
 54 53  1  0  0  0  0
 54 55  1  1  0  0  0
 59 56  1  1  0  0  0
 57 56  1  0  0  0  0
 58 63  1  0  0  0  0
 59 58  1  0  0  0  0
 60 59  1  0  0  0  0
 61 60  1  0  0  0  0
 62 61  1  0  0  0  0
 63 62  1  0  0  0  0
 20 64  1  1  0  0  0
 20 65  1  6  0  0  0
 27 66  1  0  0  0  0
 24 67  1  0  0  0  0
 66 67  1  0  0  0  0
 14 68  1  0  0  0  0
 23 69  1  1  0  0  0
  2 70  1  0  0  0  0
 70 71  1  0  0  0  0
 70 72  2  0  0  0  0
 25 73  1  1  0  0  0
 33 74  1  6  0  0  0
 35 75  1  6  0  0  0
M  END
>  <cdx:fragmentId>
5

$$$$
