99947.cdx
  Mrv1902 05222410192D          

 11 11  0  0  0  0            999 V2000
    8.1144   -6.5901    0.0000 C   0  0  0  0  0  0  0  0  0  0  0  0
    7.4007   -7.0039    0.0000 C   0  0  0  0  0  0  0  0  0  0  0  0
    6.6854   -6.5928    0.0000 C   0  0  0  0  0  0  0  0  0  0  0  0
    6.6902   -9.0678    0.0000 C   0  0  0  0  0  0  0  0  0  0  0  0
    6.6886   -8.2428    0.0000 C   0  0  0  0  0  0  0  0  0  0  0  0
    7.4023   -7.8289    0.0000 C   0  0  1  0  0  0  0  0  0  0  0  0
    8.1175   -8.2401    0.0000 C   0  0  0  0  0  0  0  0  0  0  0  0
    8.1191   -9.0651    0.0000 C   0  0  0  0  0  0  0  0  0  0  0  0
    7.4054   -9.4789    0.0000 C   0  0  0  0  0  0  0  0  0  0  0  0
    6.6933  -10.7178    0.0000 O   0  0  0  0  0  0  0  0  0  0  0  0
    7.4070  -10.3039    0.0000 C   0  0  0  0  0  0  0  0  0  0  0  0
 11  9  1  0  0  0  0
  6  2  1  6  0  0  0
  2  1  1  0  0  0  0
  3  2  2  0  0  0  0
  9  4  1  0  0  0  0
  5  4  1  0  0  0  0
  6  5  1  0  0  0  0
  7  6  1  0  0  0  0
  8  7  1  0  0  0  0
  9  8  2  0  0  0  0
 11 10  1  0  0  0  0
M  END
>  <cdx:fragmentId>
9

$$$$
