99940.cdx
  Mrv1902 05222410202D          

 46 51  0  0  0  0            999 V2000
    5.8814   -8.3491    0.0000 C   0  0  0  0  0  0  0  0  0  0  0  0
    5.8814   -9.1741    0.0000 C   0  0  2  0  0  0  0  0  0  0  0  0
    6.5959   -9.5866    0.0000 C   0  0  1  0  0  0  0  0  0  0  0  0
    7.3103   -9.1741    0.0000 C   0  0  1  0  0  0  0  0  0  0  0  0
    7.3103   -8.3491    0.0000 C   0  0  2  0  0  0  0  0  0  0  0  0
    6.5959   -7.9366    0.0000 C   0  0  0  0  0  0  0  0  0  0  0  0
    8.0248   -9.5866    0.0000 C   0  0  0  0  0  0  0  0  0  0  0  0
    8.7393   -9.1741    0.0000 C   0  0  0  0  0  0  0  0  0  0  0  0
    8.7393   -8.3491    0.0000 C   0  0  2  0  0  0  0  0  0  0  0  0
    8.0248   -7.9366    0.0000 C   0  0  2  0  0  0  0  0  0  0  0  0
    9.4538   -7.9366    0.0000 C   0  0  1  0  0  0  0  0  0  0  0  0
    9.4538   -7.1116    0.0000 C   0  0  0  0  0  0  0  0  0  0  0  0
    8.7393   -6.6991    0.0000 C   0  0  0  0  0  0  0  0  0  0  0  0
    8.0248   -7.1116    0.0000 C   0  0  0  0  0  0  0  0  0  0  0  0
   10.1682   -8.3491    0.0000 C   0  0  0  0  0  0  0  0  0  0  0  0
   10.8827   -7.9366    0.0000 C   0  0  1  0  0  0  0  0  0  0  0  0
   10.8827   -7.1116    0.0000 C   0  0  2  0  0  0  0  0  0  0  0  0
   10.1682   -6.6991    0.0000 C   0  0  0  0  0  0  0  0  0  0  0  0
   11.5972   -6.6991    0.0000 C   0  0  0  0  0  0  0  0  0  0  0  0
   11.5972   -5.8741    0.0000 C   0  0  0  0  0  0  0  0  0  0  0  0
   10.8827   -5.4616    0.0000 C   0  0  1  0  0  0  0  0  0  0  0  0
   10.1682   -5.8741    0.0000 C   0  0  0  0  0  0  0  0  0  0  0  0
    5.1669   -9.5866    0.0000 O   0  0  0  0  0  0  0  0  0  0  0  0
    6.1834  -10.3011    0.0000 C   0  0  0  0  0  0  0  0  0  0  0  0
    7.3103   -7.5241    0.0000 C   0  0  0  0  0  0  0  0  0  0  0  0
    8.7393   -7.5241    0.0000 C   0  0  0  0  0  0  0  0  0  0  0  0
   10.4702   -4.7471    0.0000 C   0  0  0  0  0  0  0  0  0  0  0  0
    7.0084  -10.3011    0.0000 C   0  0  0  0  0  0  0  0  0  0  0  0
    9.4538   -8.7616    0.0000 C   0  0  0  0  0  0  0  0  0  0  0  0
   11.5972   -8.3491    0.0000 O   0  0  0  0  0  0  0  0  0  0  0  0
   11.2952   -4.7471    0.0000 C   0  0  0  0  0  0  0  0  0  0  0  0
    3.7335   -7.9288    0.0000 C   0  0  2  0  0  0  0  0  0  0  0  0
    3.0190   -8.3413    0.0000 C   0  0  1  0  0  0  0  0  0  0  0  0
    3.0190   -9.1663    0.0000 C   0  0  1  0  0  0  0  0  0  0  0  0
    3.7335   -9.5788    0.0000 C   0  0  2  0  0  0  0  0  0  0  0  0
    4.4480   -9.1663    0.0000 C   0  0  1  0  0  0  0  0  0  0  0  0
    4.4480   -8.3413    0.0000 O   0  0  0  0  0  0  0  0  0  0  0  0
    3.7335   -7.1038    0.0000 C   0  0  0  0  0  0  0  0  0  0  0  0
    2.3046   -9.5788    0.0000 O   0  0  0  0  0  0  0  0  0  0  0  0
    2.3045   -7.9288    0.0000 O   0  0  0  0  0  0  0  0  0  0  0  0
    3.7335  -10.4038    0.0000 O   0  0  0  0  0  0  0  0  0  0  0  0
   11.5972   -7.5241    0.0000 C   0  0  0  0  0  0  0  0  0  0  0  0
   12.3116   -7.1116    0.0000 O   0  0  0  0  0  0  0  0  0  0  0  0
    7.3103   -9.9991    0.0000 H   0  0  0  0  0  0  0  0  0  0  0  0
    8.0248   -8.7616    0.0000 H   0  0  0  0  0  0  0  0  0  0  0  0
    6.5959  -11.0156    0.0000 O   0  0  0  0  0  0  0  0  0  0  0  0
  1  2  1  0  0  0  0
  2  3  1  0  0  0  0
  3  4  1  0  0  0  0
  4  5  1  0  0  0  0
  5  6  1  0  0  0  0
  6  1  1  0  0  0  0
  4  7  1  0  0  0  0
  7  8  1  0  0  0  0
  8  9  1  0  0  0  0
  9 10  1  0  0  0  0
 10  5  1  0  0  0  0
  9 11  1  0  0  0  0
 11 12  1  0  0  0  0
 12 13  1  0  0  0  0
 13 14  2  0  0  0  0
 14 10  1  0  0  0  0
 11 15  1  0  0  0  0
 15 16  1  0  0  0  0
 16 17  1  0  0  0  0
 17 18  1  0  0  0  0
 18 12  2  0  0  0  0
 17 19  1  0  0  0  0
 19 20  1  0  0  0  0
 20 21  1  0  0  0  0
 21 22  1  0  0  0  0
 22 18  1  0  0  0  0
  2 23  1  6  0  0  0
  3 24  1  1  0  0  0
  5 25  1  1  0  0  0
  9 26  1  1  0  0  0
 21 27  1  1  0  0  0
  3 28  1  6  0  0  0
 11 29  1  6  0  0  0
 16 30  1  1  0  0  0
 21 31  1  6  0  0  0
 32 33  1  0  0  0  0
 33 34  1  0  0  0  0
 34 35  1  0  0  0  0
 35 36  1  0  0  0  0
 36 37  1  0  0  0  0
 37 32  1  0  0  0  0
 32 38  1  1  0  0  0
 34 39  1  1  0  0  0
 33 40  1  1  0  0  0
 35 41  1  6  0  0  0
 36 23  1  1  0  0  0
 17 42  1  1  0  0  0
 42 43  1  0  0  0  0
  4 44  1  6  0  0  0
 10 45  1  6  0  0  0
 28 46  1  0  0  0  0
M  END
>  <cdx:fragmentId>
5

$$$$
