99942.cdx
  Mrv1902 05222410202D          

 11 10  0  0  0  0            999 V2000
    8.4753   -8.8961    0.0000 C   0  0  0  0  0  0  0  0  0  0  0  0
    7.7608   -8.4836    0.0000 C   0  0  2  0  0  0  0  0  0  0  0  0
    7.0463   -8.8961    0.0000 C   0  0  0  0  0  0  0  0  0  0  0  0
    6.3318   -8.4836    0.0000 C   0  0  0  0  0  0  0  0  0  0  0  0
    5.6174   -8.8961    0.0000 C   0  0  0  0  0  0  0  0  0  0  0  0
    5.6174   -9.7211    0.0000 C   0  0  0  0  0  0  0  0  0  0  0  0
    9.1897   -8.4836    0.0000 O   0  0  0  0  0  0  0  0  0  0  0  0
    8.4753   -7.2461    0.0000 C   0  0  0  0  0  0  0  0  0  0  0  0
    7.7608   -7.6586    0.0000 C   0  0  0  0  0  0  0  0  0  0  0  0
    7.0463   -7.2461    0.0000 C   0  0  0  0  0  0  0  0  0  0  0  0
    4.9029   -8.4836    0.0000 C   0  0  0  0  0  0  0  0  0  0  0  0
  1  2  1  0  0  0  0
  2  3  1  0  0  0  0
  3  4  1  0  0  0  0
  4  5  2  0  0  0  0
  5  6  1  0  0  0  0
  1  7  1  0  0  0  0
  8  9  2  0  0  0  0
  9 10  1  0  0  0  0
  2  9  1  6  0  0  0
  5 11  1  0  0  0  0
M  END
>  <cdx:fragmentId>
5

$$$$
