99941.cdx
  Mrv1902 05222410202D          

 11 11  0  0  0  0            999 V2000
    8.0654   -6.6898    0.0000 C   0  0  0  0  0  0  0  0  0  0  0  0
    7.3504   -7.1013    0.0000 C   0  0  0  0  0  0  0  0  0  0  0  0
    6.6365   -6.6878    0.0000 C   0  0  0  0  0  0  0  0  0  0  0  0
    6.6307  -10.8128    0.0000 O   0  0  0  0  0  0  0  0  0  0  0  0
    7.3458  -10.4012    0.0000 C   0  0  0  0  0  0  0  0  0  0  0  0
    6.6330   -9.1628    0.0000 C   0  0  0  0  0  0  0  0  0  0  0  0
    6.6342   -8.3378    0.0000 C   0  0  0  0  0  0  0  0  0  0  0  0
    7.3492   -7.9263    0.0000 C   0  0  1  0  0  0  0  0  0  0  0  0
    8.0631   -8.3397    0.0000 C   0  0  0  0  0  0  0  0  0  0  0  0
    8.0620   -9.1647    0.0000 C   0  0  0  0  0  0  0  0  0  0  0  0
    7.3469   -9.5763    0.0000 C   0  0  0  0  0  0  0  0  0  0  0  0
  8  2  1  6  0  0  0
  2  1  1  0  0  0  0
  3  2  2  0  0  0  0
 11  5  1  0  0  0  0
  5  4  2  0  0  0  0
 11  6  1  0  0  0  0
  7  6  1  0  0  0  0
  8  7  1  0  0  0  0
  9  8  1  0  0  0  0
 10  9  1  0  0  0  0
 11 10  2  0  0  0  0
M  END
>  <cdx:fragmentId>
5

$$$$
