99951.cdx
  Mrv1902 05222410182D          

 46 50  0  0  0  0            999 V2000
   10.5477   -8.6254    0.0000 O   0  0  0  0  0  0  0  0  0  0  0  0
    9.8333   -9.8629    0.0000 O   0  0  0  0  0  0  0  0  0  0  0  0
   10.5477   -9.4504    0.0000 C   0  0  2  0  0  0  0  0  0  0  0  0
   11.2622   -9.8629    0.0000 C   0  0  1  0  0  0  0  0  0  0  0  0
   11.2622  -10.6879    0.0000 C   0  0  2  0  0  0  0  0  0  0  0  0
   10.5477  -11.1004    0.0000 C   0  0  1  0  0  0  0  0  0  0  0  0
    9.8333  -10.6879    0.0000 C   0  0  1  0  0  0  0  0  0  0  0  0
   10.5477  -11.9254    0.0000 O   0  0  0  0  0  0  0  0  0  0  0  0
   11.9767  -11.1004    0.0000 O   0  0  0  0  0  0  0  0  0  0  0  0
   11.9767   -9.4504    0.0000 O   0  0  0  0  0  0  0  0  0  0  0  0
    9.1188  -11.1004    0.0000 C   0  0  0  0  0  0  0  0  0  0  0  0
    9.1188  -11.9254    0.0000 O   0  0  0  0  0  0  0  0  0  0  0  0
    8.4043  -10.6879    0.0000 O   0  0  0  0  0  0  0  0  0  0  0  0
   11.2622   -7.3879    0.0000 C   0  0  0  0  0  0  0  0  0  0  0  0
   10.5477   -6.9754    0.0000 O   0  0  0  0  0  0  0  0  0  0  0  0
    8.4043   -7.3879    0.0000 C   0  0  0  0  0  0  0  0  0  0  0  0
    9.1188   -6.9754    0.0000 C   0  0  0  0  0  0  0  0  0  0  0  0
    9.8333   -7.3879    0.0000 C   0  0  0  0  0  0  0  0  0  0  0  0
    9.8333   -8.2129    0.0000 C   0  0  0  0  0  0  0  0  0  0  0  0
    9.1188   -8.6254    0.0000 C   0  0  0  0  0  0  0  0  0  0  0  0
    8.4043   -8.2129    0.0000 C   0  0  0  0  0  0  0  0  0  0  0  0
    5.5464  -10.6879    0.0000 O   0  0  0  0  0  0  0  0  0  0  0  0
    6.9754  -10.6879    0.0000 O   0  0  0  0  0  0  0  0  0  0  0  0
    6.9754   -8.2129    0.0000 O   0  0  0  0  0  0  0  0  0  0  0  0
    6.2609   -8.6254    0.0000 C   0  0  0  0  0  0  0  0  0  0  0  0
    5.5464   -8.2129    0.0000 C   0  0  0  0  0  0  0  0  0  0  0  0
    4.8320   -8.6254    0.0000 C   0  0  0  0  0  0  0  0  0  0  0  0
    4.8320   -9.4504    0.0000 C   0  0  0  0  0  0  0  0  0  0  0  0
    5.5464   -9.8629    0.0000 C   0  0  0  0  0  0  0  0  0  0  0  0
    6.2609   -9.4504    0.0000 C   0  0  0  0  0  0  0  0  0  0  0  0
    6.9754   -9.8629    0.0000 C   0  0  0  0  0  0  0  0  0  0  0  0
    7.6899   -9.4504    0.0000 C   0  0  0  0  0  0  0  0  0  0  0  0
    7.6899   -8.6254    0.0000 C   0  0  1  0  0  0  0  0  0  0  0  0
    4.1175   -8.2129    0.0000 O   0  0  0  0  0  0  0  0  0  0  0  0
    1.2596   -9.8629    0.0000 O   0  0  0  0  0  0  0  0  0  0  0  0
    2.6886  -10.6879    0.0000 O   0  0  0  0  0  0  0  0  0  0  0  0
    4.1175   -9.8629    0.0000 O   0  0  0  0  0  0  0  0  0  0  0  0
    0.5451   -8.6254    0.0000 O   0  0  0  0  0  0  0  0  0  0  0  0
    1.2596   -7.3879    0.0000 O   0  0  0  0  0  0  0  0  0  0  0  0
    1.2596   -8.2129    0.0000 C   0  0  0  0  0  0  0  0  0  0  0  0
    3.4030   -8.6254    0.0000 C   0  0  1  0  0  0  0  0  0  0  0  0
    3.4030   -9.4504    0.0000 C   0  0  1  0  0  0  0  0  0  0  0  0
    2.6886   -9.8629    0.0000 C   0  0  2  0  0  0  0  0  0  0  0  0
    1.9741   -9.4504    0.0000 C   0  0  1  0  0  0  0  0  0  0  0  0
    1.9741   -8.6254    0.0000 C   0  0  2  0  0  0  0  0  0  0  0  0
    2.6886   -8.2129    0.0000 O   0  0  0  0  0  0  0  0  0  0  0  0
 41 34  1  1  0  0  0
 34 27  1  0  0  0  0
 33 21  1  6  0  0  0
 19  1  1  0  0  0  0
 18 15  1  0  0  0  0
 15 14  1  0  0  0  0
 21 16  2  0  0  0  0
 17 16  1  0  0  0  0
 18 17  2  0  0  0  0
 19 18  1  0  0  0  0
 20 19  2  0  0  0  0
 21 20  1  0  0  0  0
 29 22  1  0  0  0  0
 31 23  2  0  0  0  0
 33 24  1  0  0  0  0
 25 24  1  0  0  0  0
 30 25  2  0  0  0  0
 26 25  1  0  0  0  0
 27 26  2  0  0  0  0
 28 27  1  0  0  0  0
 29 28  2  0  0  0  0
 30 29  1  0  0  0  0
 31 30  1  0  0  0  0
 32 31  1  0  0  0  0
 33 32  1  0  0  0  0
 44 35  1  6  0  0  0
 43 36  1  1  0  0  0
 42 37  1  6  0  0  0
 45 40  1  1  0  0  0
 40 38  1  0  0  0  0
 40 39  2  0  0  0  0
 46 41  1  0  0  0  0
 42 41  1  0  0  0  0
 43 42  1  0  0  0  0
 44 43  1  0  0  0  0
 45 44  1  0  0  0  0
 46 45  1  0  0  0  0
  2  3  1  0  0  0  0
  3  4  1  0  0  0  0
  4  5  1  0  0  0  0
  5  6  1  0  0  0  0
  6  7  1  0  0  0  0
  2  7  1  0  0  0  0
  6  8  1  6  0  0  0
  5  9  1  1  0  0  0
  4 10  1  6  0  0  0
 11 12  2  0  0  0  0
 11 13  1  0  0  0  0
  7 11  1  1  0  0  0
  3  1  1  1  0  0  0
M  END
>  <cdx:fragmentId>
73

$$$$
