99952.cdx
  Mrv1902 05222410182D          

 52 57  0  0  0  0            999 V2000
    5.0905  -10.2845    0.0000 O   0  0  0  0  0  0  0  0  0  0  0  0
    4.3830   -9.0430    0.0000 O   0  0  0  0  0  0  0  0  0  0  0  0
    4.3784   -9.8680    0.0000 C   0  0  2  0  0  0  0  0  0  0  0  0
    3.6616  -10.2765    0.0000 C   0  0  1  0  0  0  0  0  0  0  0  0
    2.9494   -9.8599    0.0000 C   0  0  1  0  0  0  0  0  0  0  0  0
    2.9541   -9.0350    0.0000 C   0  0  2  0  0  0  0  0  0  0  0  0
    3.6709   -8.6265    0.0000 C   0  0  2  0  0  0  0  0  0  0  0  0
    3.6755   -7.8015    0.0000 C   0  0  0  0  0  0  0  0  0  0  0  0
    2.2420   -8.6184    0.0000 O   0  0  0  0  0  0  0  0  0  0  0  0
    2.2327  -10.2684    0.0000 O   0  0  0  0  0  0  0  0  0  0  0  0
    3.6569  -11.1014    0.0000 O   0  0  0  0  0  0  0  0  0  0  0  0
   10.0883  -12.3555    0.0000 O   0  0  0  0  0  0  0  0  0  0  0  0
   15.0959   -8.6515    0.0000 O   0  0  0  0  0  0  0  0  0  0  0  0
   12.9518   -9.0604    0.0000 C   0  0  0  0  0  0  0  0  0  0  0  0
   13.6669   -8.6491    0.0000 C   0  0  0  0  0  0  0  0  0  0  0  0
   14.3807   -9.0628    0.0000 C   0  0  0  0  0  0  0  0  0  0  0  0
   14.3793   -9.8878    0.0000 C   0  0  0  0  0  0  0  0  0  0  0  0
   13.6641  -10.2991    0.0000 C   0  0  0  0  0  0  0  0  0  0  0  0
   12.9504   -9.8854    0.0000 C   0  0  0  0  0  0  0  0  0  0  0  0
    8.6607  -11.5281    0.0000 O   0  0  0  0  0  0  0  0  0  0  0  0
    7.2304  -12.3507    0.0000 O   0  0  0  0  0  0  0  0  0  0  0  0
    5.8029  -11.5232    0.0000 O   0  0  0  0  0  0  0  0  0  0  0  0
    5.8057   -9.8732    0.0000 C   0  0  0  0  0  0  0  0  0  0  0  0
    6.5194  -10.2869    0.0000 C   0  0  2  0  0  0  0  0  0  0  0  0
    6.5180  -11.1119    0.0000 C   0  0  2  0  0  0  0  0  0  0  0  0
    7.2318  -11.5257    0.0000 C   0  0  1  0  0  0  0  0  0  0  0  0
    7.9470  -11.1144    0.0000 C   0  0  2  0  0  0  0  0  0  0  0  0
    7.9484  -10.2894    0.0000 C   0  0  1  0  0  0  0  0  0  0  0  0
    7.2346   -9.8757    0.0000 O   0  0  0  0  0  0  0  0  0  0  0  0
    8.6635   -9.8781    0.0000 O   0  0  0  0  0  0  0  0  0  0  0  0
   11.5172  -12.3580    0.0000 O   0  0  0  0  0  0  0  0  0  0  0  0
   11.5214   -9.8830    0.0000 O   0  0  0  0  0  0  0  0  0  0  0  0
   10.8063  -10.2942    0.0000 C   0  0  0  0  0  0  0  0  0  0  0  0
   10.0925   -9.8805    0.0000 C   0  0  0  0  0  0  0  0  0  0  0  0
    9.3773  -10.2918    0.0000 C   0  0  0  0  0  0  0  0  0  0  0  0
    9.3759  -11.1168    0.0000 C   0  0  0  0  0  0  0  0  0  0  0  0
   10.0897  -11.5305    0.0000 C   0  0  0  0  0  0  0  0  0  0  0  0
   10.8049  -11.1192    0.0000 C   0  0  0  0  0  0  0  0  0  0  0  0
   11.5186  -11.5330    0.0000 C   0  0  0  0  0  0  0  0  0  0  0  0
   12.2338  -11.1217    0.0000 C   0  0  0  0  0  0  0  0  0  0  0  0
   12.2352  -10.2967    0.0000 C   0  0  1  0  0  0  0  0  0  0  0  0
   15.7552   -6.5772    0.0000 C   0  0  2  0  0  0  0  0  0  0  0  0
   15.0312   -6.1817    0.0000 C   0  0  2  0  0  0  0  0  0  0  0  0
   14.3267   -6.6110    0.0000 C   0  0  1  0  0  0  0  0  0  0  0  0
   14.3463   -7.4358    0.0000 C   0  0  2  0  0  0  0  0  0  0  0  0
   15.0703   -7.8313    0.0000 C   0  0  1  0  0  0  0  0  0  0  0  0
   15.7748   -7.4019    0.0000 O   0  0  0  0  0  0  0  0  0  0  0  0
   16.4597   -6.1479    0.0000 C   0  0  0  0  0  0  0  0  0  0  0  0
   13.6027   -6.2156    0.0000 O   0  0  0  0  0  0  0  0  0  0  0  0
   13.6418   -7.8651    0.0000 O   0  0  0  0  0  0  0  0  0  0  0  0
   15.0117   -5.3570    0.0000 O   0  0  0  0  0  0  0  0  0  0  0  0
   16.4402   -5.3231    0.0000 O   0  0  0  0  0  0  0  0  0  0  0  0
 37 12  1  0  0  0  0
 41 19  1  6  0  0  0
 16 13  1  0  0  0  0
 19 14  2  0  0  0  0
 15 14  1  0  0  0  0
 16 15  2  0  0  0  0
 17 16  1  0  0  0  0
 18 17  2  0  0  0  0
 19 18  1  0  0  0  0
 35 30  1  0  0  0  0
 28 30  1  1  0  0  0
 27 20  1  6  0  0  0
 26 21  1  1  0  0  0
 25 22  1  6  0  0  0
 24 23  1  1  0  0  0
 23  1  1  0  0  0  0
 29 24  1  0  0  0  0
 25 24  1  0  0  0  0
 26 25  1  0  0  0  0
 27 26  1  0  0  0  0
 28 27  1  0  0  0  0
 29 28  1  0  0  0  0
 39 31  2  0  0  0  0
 41 32  1  0  0  0  0
 33 32  1  0  0  0  0
 38 33  2  0  0  0  0
 34 33  1  0  0  0  0
 35 34  2  0  0  0  0
 36 35  1  0  0  0  0
 37 36  2  0  0  0  0
 38 37  1  0  0  0  0
 39 38  1  0  0  0  0
 40 39  1  0  0  0  0
 41 40  1  0  0  0  0
  2  3  1  0  0  0  0
  3  4  1  0  0  0  0
  4  5  1  0  0  0  0
  5  6  1  0  0  0  0
  6  7  1  0  0  0  0
  2  7  1  0  0  0  0
  7  8  1  6  0  0  0
  6  9  1  1  0  0  0
  5 10  1  6  0  0  0
  4 11  1  6  0  0  0
  3  1  1  1  0  0  0
 42 43  1  0  0  0  0
 43 44  1  0  0  0  0
 44 45  1  0  0  0  0
 45 46  1  0  0  0  0
 46 47  1  0  0  0  0
 47 42  1  0  0  0  0
 42 48  1  1  0  0  0
 44 49  1  1  0  0  0
 45 50  1  6  0  0  0
 43 51  1  6  0  0  0
 48 52  1  0  0  0  0
 46 13  1  1  0  0  0
M  END
>  <cdx:groupId>
219

>  <cdx:fragmentId>
220

$$$$
