99955.cdx
  Mrv1902 05222410202D          

 29 31  0  0  0  0            999 V2000
   11.1252   -7.3558    0.0000 C   0  0  0  0  0  0  0  0  0  0  0  0
   10.4108   -6.9433    0.0000 O   0  0  0  0  0  0  0  0  0  0  0  0
    8.2674   -7.3558    0.0000 C   0  0  0  0  0  0  0  0  0  0  0  0
    8.9818   -6.9433    0.0000 C   0  0  0  0  0  0  0  0  0  0  0  0
    9.6963   -7.3558    0.0000 C   0  0  0  0  0  0  0  0  0  0  0  0
    9.6963   -8.1808    0.0000 C   0  0  0  0  0  0  0  0  0  0  0  0
    8.9818   -8.5933    0.0000 C   0  0  0  0  0  0  0  0  0  0  0  0
    8.2674   -8.1808    0.0000 C   0  0  0  0  0  0  0  0  0  0  0  0
    5.4095  -10.6558    0.0000 O   0  0  0  0  0  0  0  0  0  0  0  0
    3.9805   -9.8308    0.0000 O   0  0  0  0  0  0  0  0  0  0  0  0
    3.2661   -8.5933    0.0000 C   0  0  0  0  0  0  0  0  0  0  0  0
    3.9805   -8.1808    0.0000 O   0  0  0  0  0  0  0  0  0  0  0  0
    4.6950   -6.9433    0.0000 C   0  0  0  0  0  0  0  0  0  0  0  0
    5.4095   -7.3558    0.0000 O   0  0  0  0  0  0  0  0  0  0  0  0
    6.8384  -10.6558    0.0000 O   0  0  0  0  0  0  0  0  0  0  0  0
    6.8384   -8.1808    0.0000 O   0  0  0  0  0  0  0  0  0  0  0  0
    6.1239   -8.5933    0.0000 C   0  0  0  0  0  0  0  0  0  0  0  0
    5.4095   -8.1808    0.0000 C   0  0  0  0  0  0  0  0  0  0  0  0
    4.6950   -8.5933    0.0000 C   0  0  0  0  0  0  0  0  0  0  0  0
    4.6950   -9.4183    0.0000 C   0  0  0  0  0  0  0  0  0  0  0  0
    5.4095   -9.8308    0.0000 C   0  0  0  0  0  0  0  0  0  0  0  0
    6.1239   -9.4183    0.0000 C   0  0  0  0  0  0  0  0  0  0  0  0
    6.8384   -9.8308    0.0000 C   0  0  0  0  0  0  0  0  0  0  0  0
    7.5529   -9.4183    0.0000 C   0  0  0  0  0  0  0  0  0  0  0  0
    7.5529   -8.5933    0.0000 C   0  0  0  0  0  0  0  0  0  0  0  0
    3.9805  -10.6558    0.0000 C   0  0  0  0  0  0  0  0  0  0  0  0
    6.1239  -11.0683    0.0000 C   0  0  0  0  0  0  0  0  0  0  0  0
    8.9818   -6.1183    0.0000 O   0  0  0  0  0  0  0  0  0  0  0  0
    8.2674   -5.7058    0.0000 C   0  0  0  0  0  0  0  0  0  0  0  0
 25  8  1  0  0  0  0
  5  2  1  0  0  0  0
  2  1  1  0  0  0  0
  8  3  2  0  0  0  0
  4  3  1  0  0  0  0
  5  4  2  0  0  0  0
  6  5  1  0  0  0  0
  7  6  2  0  0  0  0
  8  7  1  0  0  0  0
 21  9  1  0  0  0  0
 20 10  1  0  0  0  0
 19 12  1  0  0  0  0
 12 11  1  0  0  0  0
 18 14  1  0  0  0  0
 14 13  1  0  0  0  0
 23 15  2  0  0  0  0
 25 16  1  0  0  0  0
 17 16  1  0  0  0  0
 22 17  2  0  0  0  0
 18 17  1  0  0  0  0
 19 18  2  0  0  0  0
 20 19  1  0  0  0  0
 21 20  2  0  0  0  0
 22 21  1  0  0  0  0
 23 22  1  0  0  0  0
 24 23  1  0  0  0  0
 25 24  1  0  0  0  0
 10 26  1  0  0  0  0
  9 27  1  0  0  0  0
  4 28  1  0  0  0  0
 28 29  1  0  0  0  0
M  END
>  <cdx:fragmentId>
5

$$$$
