99959.cdx
  Mrv1902 05222410262D          

 51 56  0  0  0  0            999 V2000
    3.5799  -10.0512    0.0000 C   0  0  2  0  0  0  0  0  0  0  0  0
    3.5799  -10.8762    0.0000 C   0  0  2  0  0  0  0  0  0  0  0  0
    4.2944  -11.2888    0.0000 C   0  0  1  0  0  0  0  0  0  0  0  0
    5.0089  -10.8762    0.0000 C   0  0  2  0  0  0  0  0  0  0  0  0
    5.0089  -10.0512    0.0000 C   0  0  1  0  0  0  0  0  0  0  0  0
    4.2944   -9.6387    0.0000 O   0  0  0  0  0  0  0  0  0  0  0  0
    5.7233   -9.6387    0.0000 O   0  0  0  0  0  0  0  0  0  0  0  0
    5.7233   -8.8138    0.0000 C   0  0  0  0  0  0  0  0  0  0  0  0
    5.0089   -8.4013    0.0000 C   0  0  0  0  0  0  0  0  0  0  0  0
    7.1523   -8.8138    0.0000 C   0  0  0  0  0  0  0  0  0  0  0  0
    6.4378   -8.4013    0.0000 C   0  0  1  0  0  0  0  0  0  0  0  0
    7.8668   -8.4013    0.0000 C   0  0  1  0  0  0  0  0  0  0  0  0
    7.8668   -7.5762    0.0000 C   0  0  2  0  0  0  0  0  0  0  0  0
    7.1523   -7.1638    0.0000 C   0  0  0  0  0  0  0  0  0  0  0  0
    6.4378   -7.5762    0.0000 C   0  0  0  0  0  0  0  0  0  0  0  0
    8.5812   -8.8138    0.0000 C   0  0  0  0  0  0  0  0  0  0  0  0
    9.2957   -8.4013    0.0000 C   0  0  0  0  0  0  0  0  0  0  0  0
    9.2957   -7.5762    0.0000 C   0  0  2  0  0  0  0  0  0  0  0  0
    8.5812   -7.1638    0.0000 C   0  0  2  0  0  0  0  0  0  0  0  0
   10.0637   -7.2748    0.0000 C   0  0  0  0  0  0  0  0  0  0  0  0
   10.3068   -6.4865    0.0000 O   0  0  0  0  0  0  0  0  0  0  0  0
    9.8421   -5.8048    0.0000 C   0  0  0  0  0  0  0  0  0  0  0  0
    9.0194   -5.7432    0.0000 C   0  0  0  0  0  0  0  0  0  0  0  0
    8.4583   -6.3480    0.0000 C   0  0  1  0  0  0  0  0  0  0  0  0
    2.8655   -9.6387    0.0000 C   0  0  0  0  0  0  0  0  0  0  0  0
    2.1510  -10.0512    0.0000 O   0  0  0  0  0  0  0  0  0  0  0  0
    4.9226   -7.5808    0.0000 C   0  0  0  0  0  0  0  0  0  0  0  0
    4.1157   -7.4092    0.0000 C   0  0  0  0  0  0  0  0  0  0  0  0
    3.7032   -8.1237    0.0000 O   0  0  0  0  0  0  0  0  0  0  0  0
    4.2552   -8.7368    0.0000 C   0  0  0  0  0  0  0  0  0  0  0  0
   10.2546   -5.0904    0.0000 O   0  0  0  0  0  0  0  0  0  0  0  0
   10.2772   -8.0717    0.0000 C   0  0  0  0  0  0  0  0  0  0  0  0
   10.8606   -7.4884    0.0000 C   0  0  0  0  0  0  0  0  0  0  0  0
    8.5812   -9.6387    0.0000 O   0  0  0  0  0  0  0  0  0  0  0  0
    7.6699   -6.1048    0.0000 O   0  0  0  0  0  0  0  0  0  0  0  0
    7.4564   -5.3079    0.0000 C   0  0  0  0  0  0  0  0  0  0  0  0
    6.6595   -5.0944    0.0000 O   0  0  0  0  0  0  0  0  0  0  0  0
    8.0398   -4.7245    0.0000 C   0  0  0  0  0  0  0  0  0  0  0  0
    6.7398   -9.5282    0.0000 O   0  0  0  0  0  0  0  0  0  0  0  0
    7.5648   -9.5282    0.0000 C   0  0  1  0  0  0  0  0  0  0  0  0
    7.7783  -10.3251    0.0000 C   0  0  0  0  0  0  0  0  0  0  0  0
    7.1949  -10.9085    0.0000 O   0  0  0  0  0  0  0  0  0  0  0  0
    8.5752  -10.5386    0.0000 O   0  0  0  0  0  0  0  0  0  0  0  0
    4.2944  -12.1138    0.0000 O   0  0  0  0  0  0  0  0  0  0  0  0
    5.7233   -7.9888    0.0000 C   0  0  0  0  0  0  0  0  0  0  0  0
    8.5812   -7.9942    0.0000 H   0  0  0  0  0  0  0  0  0  0  0  0
   10.0102   -7.9888    0.0000 H   0  0  0  0  0  0  0  0  0  0  0  0
    2.8655  -11.2888    0.0000 O   0  0  0  0  0  0  0  0  0  0  0  0
    5.7233  -11.2888    0.0000 O   0  0  0  0  0  0  0  0  0  0  0  0
    7.8668   -9.2263    0.0000 C   0  0  0  0  0  0  0  0  0  0  0  0
    7.9979   -6.5804    0.0000 C   0  0  0  0  0  0  0  0  0  0  0  0
  1  2  1  0  0  0  0
  2  3  1  0  0  0  0
  3  4  1  0  0  0  0
  4  5  1  0  0  0  0
  5  6  1  0  0  0  0
  6  1  1  0  0  0  0
  5  7  1  1  0  0  0
  7  8  1  0  0  0  0
  8  9  1  0  0  0  0
 10 11  1  0  0  0  0
 11  8  1  0  0  0  0
 10 12  1  0  0  0  0
 12 13  1  0  0  0  0
 13 14  1  0  0  0  0
 14 15  1  0  0  0  0
 15 11  1  0  0  0  0
 12 16  1  0  0  0  0
 16 17  1  0  0  0  0
 17 18  1  0  0  0  0
 18 19  1  0  0  0  0
 19 13  1  0  0  0  0
 18 20  1  0  0  0  0
 20 21  1  0  0  0  0
 21 22  1  0  0  0  0
 22 23  1  0  0  0  0
 23 24  1  0  0  0  0
 24 19  1  0  0  0  0
  1 25  1  1  0  0  0
 25 26  1  0  0  0  0
  9 27  1  0  0  0  0
 27 28  2  0  0  0  0
 28 29  1  0  0  0  0
 29 30  1  0  0  0  0
 30  9  2  0  0  0  0
 22 31  2  0  0  0  0
 20 32  1  0  0  0  0
 20 33  1  0  0  0  0
 16 34  2  0  0  0  0
 24 35  1  6  0  0  0
 35 36  1  0  0  0  0
 36 37  2  0  0  0  0
 36 38  1  0  0  0  0
 10 39  1  0  0  0  0
 39 40  1  0  0  0  0
 40 10  1  0  0  0  0
 40 41  1  6  0  0  0
 41 42  1  0  0  0  0
 41 43  2  0  0  0  0
  3 44  1  1  0  0  0
 11 45  1  1  0  0  0
 13 46  1  1  0  0  0
 18 47  1  1  0  0  0
  2 48  1  6  0  0  0
  4 49  1  6  0  0  0
 12 50  1  6  0  0  0
 19 51  1  6  0  0  0
M  END
>  <cdx:fragmentId>
5

$$$$
