99957.cdx
  Mrv1902 05222410192D          

 52 57  0  0  0  0            999 V2000
    5.5049   -9.3913    0.0000 C   0  0  0  0  0  0  0  0  0  0  0  0
    5.5049  -10.2163    0.0000 C   0  0  0  0  0  0  0  0  0  0  0  0
    6.2194  -10.6288    0.0000 C   0  0  0  0  0  0  0  0  0  0  0  0
    6.9339  -10.2163    0.0000 C   0  0  0  0  0  0  0  0  0  0  0  0
    6.9339   -9.3913    0.0000 C   0  0  0  0  0  0  0  0  0  0  0  0
    6.2194   -8.9788    0.0000 C   0  0  0  0  0  0  0  0  0  0  0  0
    7.6483  -10.6288    0.0000 C   0  0  0  0  0  0  0  0  0  0  0  0
    8.3628  -10.2163    0.0000 C   0  0  0  0  0  0  0  0  0  0  0  0
    8.3628   -9.3913    0.0000 C   0  0  0  0  0  0  0  0  0  0  0  0
    7.6483   -8.9788    0.0000 O   0  0  0  0  0  0  0  0  0  0  0  0
    9.0773   -8.9788    0.0000 C   0  0  0  0  0  0  0  0  0  0  0  0
    9.0773   -8.1538    0.0000 C   0  0  0  0  0  0  0  0  0  0  0  0
    9.7918   -9.3913    0.0000 C   0  0  0  0  0  0  0  0  0  0  0  0
   10.5062   -8.9788    0.0000 C   0  0  0  0  0  0  0  0  0  0  0  0
   10.5062   -8.1538    0.0000 C   0  0  0  0  0  0  0  0  0  0  0  0
    9.7918   -7.7413    0.0000 C   0  0  0  0  0  0  0  0  0  0  0  0
    6.2194  -11.4537    0.0000 O   0  0  0  0  0  0  0  0  0  0  0  0
    7.6483  -11.4537    0.0000 O   0  0  0  0  0  0  0  0  0  0  0  0
    4.7905   -8.9788    0.0000 O   0  0  0  0  0  0  0  0  0  0  0  0
    4.8044   -8.1539    0.0000 C   0  0  1  0  0  0  0  0  0  0  0  0
    4.0969   -7.7294    0.0000 C   0  0  1  0  0  0  0  0  0  0  0  0
    5.5257   -7.7535    0.0000 O   0  0  0  0  0  0  0  0  0  0  0  0
    5.5396   -6.9286    0.0000 C   0  0  1  0  0  0  0  0  0  0  0  0
    4.8322   -6.5041    0.0000 C   0  0  2  0  0  0  0  0  0  0  0  0
    4.1108   -6.9045    0.0000 C   0  0  2  0  0  0  0  0  0  0  0  0
    3.4034   -6.4800    0.0000 O   0  0  0  0  0  0  0  0  0  0  0  0
    2.6821   -6.8804    0.0000 O   0  0  0  0  0  0  0  0  0  0  0  0
    2.6682   -7.7053    0.0000 C   0  0  1  0  0  0  0  0  0  0  0  0
    3.3756   -8.1298    0.0000 O   0  0  0  0  0  0  0  0  0  0  0  0
    1.9747   -6.4560    0.0000 C   0  0  2  0  0  0  0  0  0  0  0  0
    1.2534   -6.8564    0.0000 C   0  0  1  0  0  0  0  0  0  0  0  0
    1.2395   -7.6812    0.0000 C   0  0  2  0  0  0  0  0  0  0  0  0
    1.9469   -8.1057    0.0000 C   0  0  1  0  0  0  0  0  0  0  0  0
    6.2609   -6.5282    0.0000 C   0  0  0  0  0  0  0  0  0  0  0  0
    6.2748   -5.7033    0.0000 O   0  0  0  0  0  0  0  0  0  0  0  0
    4.8461   -5.6792    0.0000 O   0  0  0  0  0  0  0  0  0  0  0  0
   11.2207   -7.7413    0.0000 O   0  0  0  0  0  0  0  0  0  0  0  0
    0.5459   -6.4319    0.0000 O   0  0  0  0  0  0  0  0  0  0  0  0
    1.9886   -5.6311    0.0000 C   0  0  0  0  0  0  0  0  0  0  0  0
    0.5181   -8.0816    0.0000 O   0  0  0  0  0  0  0  0  0  0  0  0
    1.9330   -8.9306    0.0000 O   0  0  0  0  0  0  0  0  0  0  0  0
   11.9321   -5.6830    0.0000 C   0  0  2  0  0  0  0  0  0  0  0  0
   11.2159   -5.2735    0.0000 C   0  0  2  0  0  0  0  0  0  0  0  0
   10.5031   -5.6889    0.0000 C   0  0  1  0  0  0  0  0  0  0  0  0
   10.5065   -6.5139    0.0000 C   0  0  2  0  0  0  0  0  0  0  0  0
   11.2227   -6.9234    0.0000 C   0  0  1  0  0  0  0  0  0  0  0  0
   11.9355   -6.5080    0.0000 O   0  0  0  0  0  0  0  0  0  0  0  0
   12.6448   -5.2676    0.0000 C   0  0  0  0  0  0  0  0  0  0  0  0
    9.7870   -5.2793    0.0000 O   0  0  0  0  0  0  0  0  0  0  0  0
    9.7938   -6.9293    0.0000 O   0  0  0  0  0  0  0  0  0  0  0  0
   11.2125   -4.4485    0.0000 O   0  0  0  0  0  0  0  0  0  0  0  0
   12.6414   -4.4426    0.0000 O   0  0  0  0  0  0  0  0  0  0  0  0
  1  2  2  0  0  0  0
  2  3  1  0  0  0  0
  3  4  2  0  0  0  0
  4  5  1  0  0  0  0
  5  6  2  0  0  0  0
  6  1  1  0  0  0  0
  4  7  1  0  0  0  0
  7  8  1  0  0  0  0
  8  9  1  0  0  0  0
  9 10  1  0  0  0  0
 10  5  1  0  0  0  0
  9 11  1  0  0  0  0
 11 12  1  0  0  0  0
 11 13  2  0  0  0  0
 13 14  1  0  0  0  0
 14 15  2  0  0  0  0
 15 16  1  0  0  0  0
 16 12  2  0  0  0  0
  3 17  1  0  0  0  0
 18  7  2  0  0  0  0
 19  1  1  0  0  0  0
 20 19  1  1  0  0  0
 20 21  1  0  0  0  0
 20 22  1  0  0  0  0
 22 23  1  0  0  0  0
 23 24  1  0  0  0  0
 24 25  1  0  0  0  0
 25 21  1  0  0  0  0
 25 26  1  1  0  0  0
 27 28  1  0  0  0  0
 28 29  1  1  0  0  0
 21 29  1  6  0  0  0
 27 30  1  0  0  0  0
 30 31  1  0  0  0  0
 31 32  1  0  0  0  0
 32 33  1  0  0  0  0
 33 28  1  0  0  0  0
 23 34  1  1  0  0  0
 34 35  1  0  0  0  0
 24 36  1  6  0  0  0
 15 37  1  0  0  0  0
 31 38  1  1  0  0  0
 30 39  1  6  0  0  0
 32 40  1  6  0  0  0
 33 41  1  6  0  0  0
 42 43  1  0  0  0  0
 43 44  1  0  0  0  0
 44 45  1  0  0  0  0
 45 46  1  0  0  0  0
 46 47  1  0  0  0  0
 47 42  1  0  0  0  0
 42 48  1  1  0  0  0
 44 49  1  1  0  0  0
 45 50  1  6  0  0  0
 43 51  1  6  0  0  0
 48 52  1  0  0  0  0
 46 37  1  1  0  0  0
M  END
>  <cdx:fragmentId>
387

$$$$
