99963.cdx
  Mrv1902 05222410272D          

 11 11  0  0  0  0            999 V2000
    7.4625   -9.6171    0.0000 C   0  0  1  0  0  0  0  0  0  0  0  0
    6.7475  -10.0286    0.0000 C   0  0  0  0  0  0  0  0  0  0  0  0
    6.0336   -9.6151    0.0000 C   0  0  0  0  0  0  0  0  0  0  0  0
    6.0348   -8.7901    0.0000 C   0  0  0  0  0  0  0  0  0  0  0  0
    6.7498   -8.3786    0.0000 C   0  0  1  0  0  0  0  0  0  0  0  0
    7.4637   -8.7921    0.0000 C   0  0  0  0  0  0  0  0  0  0  0  0
    8.1764  -10.0306    0.0000 O   0  0  0  0  0  0  0  0  0  0  0  0
    7.4661   -7.1421    0.0000 C   0  0  0  0  0  0  0  0  0  0  0  0
    6.7510   -7.5536    0.0000 C   0  0  0  0  0  0  0  0  0  0  0  0
    6.0371   -7.1401    0.0000 C   0  0  0  0  0  0  0  0  0  0  0  0
    6.7463  -10.8536    0.0000 C   0  0  0  0  0  0  0  0  0  0  0  0
  1  2  1  0  0  0  0
  2  3  1  0  0  0  0
  3  4  1  0  0  0  0
  4  5  1  0  0  0  0
  5  6  1  0  0  0  0
  1  6  1  0  0  0  0
  1  7  1  1  0  0  0
  8  9  2  0  0  0  0
  9 10  1  0  0  0  0
  5  9  1  6  0  0  0
  2 11  2  0  0  0  0
M  END
>  <cdx:fragmentId>
5

$$$$
