99965.cdx
  Mrv1902 05222410262D          

 12 13  0  0  0  0            999 V2000
    7.9816   -9.5913    0.0000 H   0  0  0  0  0  0  0  0  0  0  0  0
    7.9835   -7.3374    0.0000 H   0  0  0  0  0  0  0  0  0  0  0  0
    5.4274   -7.6372    0.0000 C   0  0  0  0  0  0  0  0  0  0  0  0
    8.9994   -8.0528    0.0000 C   0  0  0  0  0  0  0  0  0  0  0  0
    8.9987   -8.8778    0.0000 C   0  0  0  0  0  0  0  0  0  0  0  0
    8.2845   -8.4646    0.0000 C   0  0  0  0  0  0  0  0  0  0  0  0
    7.5697   -8.8765    0.0000 C   0  0  2  0  0  0  0  0  0  0  0  0
    6.8549   -9.2884    0.0000 C   0  0  0  0  0  0  0  0  0  0  0  0
    6.1408   -8.8753    0.0000 C   0  0  0  0  0  0  0  0  0  0  0  0
    6.1415   -8.0503    0.0000 C   0  0  1  0  0  0  0  0  0  0  0  0
    6.8563   -7.6384    0.0000 C   0  0  0  0  0  0  0  0  0  0  0  0
    7.5704   -8.0515    0.0000 C   0  0  2  0  0  0  0  0  0  0  0  0
  7  1  1  1  0  0  0
 12  2  1  1  0  0  0
 10  3  1  6  0  0  0
  6  4  1  0  0  0  0
  6  5  1  0  0  0  0
 12  7  1  0  0  0  0
 12  6  1  0  0  0  0
  7  6  1  0  0  0  0
  8  7  1  0  0  0  0
  9  8  1  0  0  0  0
 10  9  1  0  0  0  0
 11 10  1  0  0  0  0
 12 11  1  0  0  0  0
M  END
>  <cdx:fragmentId>
5

$$$$
