99960.cdx
  Mrv1902 05222410282D          

 34 38  0  0  0  0            999 V2000
    4.3069  -10.7885    0.0000 O   0  0  0  0  0  0  0  0  0  0  0  0
    2.8780   -8.3135    0.0000 O   0  0  0  0  0  0  0  0  0  0  0  0
    7.8793   -6.2510    0.0000 O   0  0  0  0  0  0  0  0  0  0  0  0
   13.1633   -7.9010    0.0000 O   0  0  0  0  0  0  0  0  0  0  0  0
   13.1633   -9.3299    0.0000 C   0  0  0  0  0  0  0  0  0  0  0  0
   12.3383   -9.3299    0.0000 O   0  0  0  0  0  0  0  0  0  0  0  0
   11.1008   -7.1865    0.0000 C   0  0  0  0  0  0  0  0  0  0  0  0
   11.9258   -7.1865    0.0000 C   0  0  0  0  0  0  0  0  0  0  0  0
   12.3383   -7.9010    0.0000 C   0  0  0  0  0  0  0  0  0  0  0  0
   11.9258   -8.6155    0.0000 C   0  0  0  0  0  0  0  0  0  0  0  0
   11.1008   -8.6155    0.0000 C   0  0  0  0  0  0  0  0  0  0  0  0
   10.6883   -7.9010    0.0000 C   0  0  0  0  0  0  0  0  0  0  0  0
   10.4403   -9.5246    0.0000 O   0  0  0  0  0  0  0  0  0  0  0  0
    9.6333   -9.3530    0.0000 C   0  0  0  0  0  0  0  0  0  0  0  0
    8.5938   -7.4885    0.0000 C   0  0  0  0  0  0  0  0  0  0  0  0
    7.8793   -7.0760    0.0000 C   0  0  0  0  0  0  0  0  0  0  0  0
    7.1648   -7.4885    0.0000 C   0  0  0  0  0  0  0  0  0  0  0  0
    7.1648   -8.3135    0.0000 C   0  0  0  0  0  0  0  0  0  0  0  0
    7.8793   -8.7260    0.0000 C   0  0  0  0  0  0  0  0  0  0  0  0
    8.5938   -8.3135    0.0000 C   0  0  0  0  0  0  0  0  0  0  0  0
    9.3784   -8.5684    0.0000 C   0  0  0  0  0  0  0  0  0  0  0  0
    9.8633   -7.9010    0.0000 C   0  0  0  0  0  0  0  0  0  0  0  0
    9.3784   -7.2335    0.0000 O   0  0  0  0  0  0  0  0  0  0  0  0
    5.7359  -10.7885    0.0000 O   0  0  0  0  0  0  0  0  0  0  0  0
    5.7359   -8.3135    0.0000 O   0  0  0  0  0  0  0  0  0  0  0  0
    5.0214   -8.7260    0.0000 C   0  0  0  0  0  0  0  0  0  0  0  0
    4.3069   -8.3135    0.0000 C   0  0  0  0  0  0  0  0  0  0  0  0
    3.5925   -8.7260    0.0000 C   0  0  0  0  0  0  0  0  0  0  0  0
    3.5925   -9.5510    0.0000 C   0  0  0  0  0  0  0  0  0  0  0  0
    4.3069   -9.9635    0.0000 C   0  0  0  0  0  0  0  0  0  0  0  0
    5.0214   -9.5510    0.0000 C   0  0  0  0  0  0  0  0  0  0  0  0
    5.7359   -9.9635    0.0000 C   0  0  0  0  0  0  0  0  0  0  0  0
    6.4503   -9.5510    0.0000 C   0  0  0  0  0  0  0  0  0  0  0  0
    6.4503   -8.7260    0.0000 C   0  0  0  0  0  0  0  0  0  0  0  0
 30  1  1  0  0  0  0
 28  2  1  0  0  0  0
 34 18  1  0  0  0  0
 16  3  1  0  0  0  0
 22 12  1  0  0  0  0
  9  4  1  0  0  0  0
 10  6  1  0  0  0  0
  6  5  1  0  0  0  0
 12  7  2  0  0  0  0
  8  7  1  0  0  0  0
  9  8  2  0  0  0  0
 10  9  1  0  0  0  0
 11 10  2  0  0  0  0
 12 11  1  0  0  0  0
 21 14  1  0  0  0  0
 14 13  1  0  0  0  0
 23 15  1  0  0  0  0
 20 15  2  0  0  0  0
 16 15  1  0  0  0  0
 17 16  2  0  0  0  0
 18 17  1  0  0  0  0
 19 18  2  0  0  0  0
 20 19  1  0  0  0  0
 21 20  1  0  0  0  0
 22 21  1  0  0  0  0
 23 22  1  0  0  0  0
 32 24  2  0  0  0  0
 34 25  1  0  0  0  0
 26 25  1  0  0  0  0
 31 26  2  0  0  0  0
 27 26  1  0  0  0  0
 28 27  2  0  0  0  0
 29 28  1  0  0  0  0
 30 29  2  0  0  0  0
 31 30  1  0  0  0  0
 32 31  1  0  0  0  0
 33 32  1  0  0  0  0
 34 33  2  0  0  0  0
M  END
>  <cdx:fragmentId>
27

$$$$
