99967.cdx
  Mrv1902 05222410262D          

 44 46  0  0  0  0            999 V2000
    4.3882   -6.7627    0.0000 C   0  0  0  0  0  0  0  0  0  0  0  0
    3.6752   -7.1778    0.0000 C   0  0  0  0  0  0  0  0  0  0  0  0
    2.9593   -6.7678    0.0000 C   0  0  0  0  0  0  0  0  0  0  0  0
    2.2463   -7.1829    0.0000 C   0  0  0  0  0  0  0  0  0  0  0  0
    1.5303   -6.7730    0.0000 O   0  0  0  0  0  0  0  0  0  0  0  0
    2.2493   -8.0079    0.0000 O   0  0  0  0  0  0  0  0  0  0  0  0
    4.3852   -5.9377    0.0000 O   0  0  0  0  0  0  0  0  0  0  0  0
    7.8879   -7.9931    0.0000 O   0  0  0  0  0  0  0  0  0  0  0  0
    7.1725   -8.4039    0.0000 C   0  0  0  0  0  0  0  0  0  0  0  0
    7.1705   -9.2289    0.0000 C   0  0  0  0  0  0  0  0  0  0  0  0
    7.8840   -9.6431    0.0000 C   0  0  0  0  0  0  0  0  0  0  0  0
    6.4493  -12.1147    0.0000 O   0  0  0  0  0  0  0  0  0  0  0  0
    7.8764  -12.9431    0.0000 O   0  0  0  0  0  0  0  0  0  0  0  0
    7.1648  -11.7039    0.0000 C   0  0  0  0  0  0  0  0  0  0  0  0
    7.1667  -10.8789    0.0000 C   0  0  0  0  0  0  0  0  0  0  0  0
    7.8821  -10.4681    0.0000 C   0  0  0  0  0  0  0  0  0  0  0  0
    8.5956  -10.8822    0.0000 C   0  0  0  0  0  0  0  0  0  0  0  0
    8.5937  -11.7072    0.0000 C   0  0  0  0  0  0  0  0  0  0  0  0
    7.8783  -12.1181    0.0000 C   0  0  0  0  0  0  0  0  0  0  0  0
   12.2038   -8.0362    0.0000 C   0  0  0  0  0  0  0  0  0  0  0  0
   12.2100   -7.2113    0.0000 C   0  0  0  0  0  0  0  0  0  0  0  0
   11.4986   -6.7935    0.0000 C   0  0  0  0  0  0  0  0  0  0  0  0
   10.7811   -7.2006    0.0000 C   0  0  0  0  0  0  0  0  0  0  0  0
   10.7749   -8.0256    0.0000 C   0  0  0  0  0  0  0  0  0  0  0  0
   11.4863   -8.4434    0.0000 C   0  0  0  0  0  0  0  0  0  0  0  0
   12.9152   -8.4540    0.0000 O   0  0  0  0  0  0  0  0  0  0  0  0
   11.4802   -9.2684    0.0000 O   0  0  0  0  0  0  0  0  0  0  0  0
   10.0697   -6.7829    0.0000 C   0  0  0  0  0  0  0  0  0  0  0  0
    9.3521   -7.1900    0.0000 C   0  0  0  0  0  0  0  0  0  0  0  0
    8.6408   -6.7722    0.0000 C   0  0  0  0  0  0  0  0  0  0  0  0
    8.6469   -5.9473    0.0000 O   0  0  0  0  0  0  0  0  0  0  0  0
    7.2084   -5.9108    0.0000 C   0  0  0  0  0  0  0  0  0  0  0  0
    5.7794   -5.9141    0.0000 C   0  0  0  0  0  0  0  0  0  0  0  0
    5.7813   -6.7391    0.0000 C   0  0  2  0  0  0  0  0  0  0  0  0
    6.4967   -7.1499    0.0000 C   0  0  1  0  0  0  0  0  0  0  0  0
    7.2102   -6.7358    0.0000 C   0  0  2  0  0  0  0  0  0  0  0  0
    7.9257   -7.1467    0.0000 O   0  0  0  0  0  0  0  0  0  0  0  0
    6.4986   -7.9749    0.0000 O   0  0  0  0  0  0  0  0  0  0  0  0
    5.0678   -7.1532    0.0000 O   0  0  0  0  0  0  0  0  0  0  0  0
    6.4929   -5.4999    0.0000 C   0  0  1  0  0  0  0  0  0  0  0  0
    6.0788   -4.7864    0.0000 O   0  0  0  0  0  0  0  0  0  0  0  0
    6.4897   -4.0710    0.0000 O   0  0  0  0  0  0  0  0  0  0  0  0
    7.7288   -4.7826    0.0000 O   0  0  0  0  0  0  0  0  0  0  0  0
    6.9038   -4.7845    0.0000 C   0  0  0  0  0  0  0  0  0  0  0  0
  1 39  1  0  0  0  0
  2  1  1  0  0  0  0
  3  2  1  0  0  0  0
  4  3  1  0  0  0  0
  5  4  1  0  0  0  0
  4  6  2  0  0  0  0
  1  7  2  0  0  0  0
  9 38  1  0  0  0  0
  9  8  2  0  0  0  0
 10  9  1  0  0  0  0
 11 10  2  0  0  0  0
 16 11  1  0  0  0  0
 14 12  1  0  0  0  0
 19 13  1  0  0  0  0
 14 19  1  0  0  0  0
 15 14  2  0  0  0  0
 16 15  1  0  0  0  0
 17 16  2  0  0  0  0
 18 17  1  0  0  0  0
 19 18  2  0  0  0  0
 30 37  1  0  0  0  0
 20 21  2  0  0  0  0
 21 22  1  0  0  0  0
 22 23  2  0  0  0  0
 23 24  1  0  0  0  0
 24 25  2  0  0  0  0
 25 20  1  0  0  0  0
 20 26  1  0  0  0  0
 25 27  1  0  0  0  0
 23 28  1  0  0  0  0
 28 29  2  0  0  0  0
 29 30  1  0  0  0  0
 30 31  2  0  0  0  0
 32 40  1  0  0  0  0
 40 33  1  0  0  0  0
 33 34  1  0  0  0  0
 34 35  1  0  0  0  0
 35 36  1  0  0  0  0
 36 32  1  0  0  0  0
 36 37  1  1  0  0  0
 35 38  1  1  0  0  0
 34 39  1  6  0  0  0
 44 42  2  0  0  0  0
 40 44  1  0  0  0  0
 40 41  1  1  0  0  0
 44 43  1  0  0  0  0
M  END
>  <cdx:fragmentId>
5

$$$$
