99966.cdx
  Mrv1902 05222410272D          

 56 59  0  0  0  0            999 V2000
    7.1521   -7.0755    0.0000 C   0  0  2  0  0  0  0  0  0  0  0  0
    6.4370   -7.4869    0.0000 C   0  0  0  0  0  0  0  0  0  0  0  0
    6.4357   -8.3119    0.0000 C   0  0  2  0  0  0  0  0  0  0  0  0
    7.1495   -8.7255    0.0000 C   0  0  1  0  0  0  0  0  0  0  0  0
    7.8647   -8.3141    0.0000 C   0  0  1  0  0  0  0  0  0  0  0  0
    7.8659   -7.4891    0.0000 C   0  0  0  0  0  0  0  0  0  0  0  0
    7.1483   -9.5505    0.0000 O   0  0  0  0  0  0  0  0  0  0  0  0
    6.4332   -9.9619    0.0000 C   0  0  0  0  0  0  0  0  0  0  0  0
    6.4319  -10.7869    0.0000 C   0  0  0  0  0  0  0  0  0  0  0  0
    5.7168  -11.1983    0.0000 C   0  0  0  0  0  0  0  0  0  0  0  0
    5.7193   -9.5483    0.0000 O   0  0  0  0  0  0  0  0  0  0  0  0
    5.7155  -12.0233    0.0000 C   0  0  0  0  0  0  0  0  0  0  0  0
    5.0004  -12.4347    0.0000 O   0  0  0  0  0  0  0  0  0  0  0  0
    6.4293  -12.4369    0.0000 O   0  0  0  0  0  0  0  0  0  0  0  0
    2.8627   -8.7228    0.0000 C   0  0  0  0  0  0  0  0  0  0  0  0
    2.1483   -8.3102    0.0000 C   0  0  0  0  0  0  0  0  0  0  0  0
    1.4338   -8.7226    0.0000 C   0  0  0  0  0  0  0  0  0  0  0  0
    1.4336   -9.5476    0.0000 C   0  0  0  0  0  0  0  0  0  0  0  0
    2.1480   -9.9602    0.0000 C   0  0  0  0  0  0  0  0  0  0  0  0
    2.8626   -9.5478    0.0000 C   0  0  0  0  0  0  0  0  0  0  0  0
    0.7191   -9.9600    0.0000 O   0  0  0  0  0  0  0  0  0  0  0  0
    0.7194   -8.3100    0.0000 O   0  0  0  0  0  0  0  0  0  0  0  0
    5.0063   -7.4857    0.0000 O   0  0  0  0  0  0  0  0  0  0  0  0
    3.5773   -8.3104    0.0000 C   0  0  0  0  0  0  0  0  0  0  0  0
    4.2917   -8.7231    0.0000 C   0  0  0  0  0  0  0  0  0  0  0  0
    5.0062   -8.3107    0.0000 C   0  0  0  0  0  0  0  0  0  0  0  0
    5.7206   -8.7233    0.0000 O   0  0  0  0  0  0  0  0  0  0  0  0
    6.7396   -6.3610    0.0000 O   0  0  0  0  0  0  0  0  0  0  0  0
    7.5646   -6.3610    0.0000 C   0  0  0  0  0  0  0  0  0  0  0  0
    7.1521   -5.6466    0.0000 O   0  0  0  0  0  0  0  0  0  0  0  0
    8.3896   -6.3610    0.0000 O   0  0  0  0  0  0  0  0  0  0  0  0
    5.9080   -6.3367    0.0000 C   0  0  0  0  0  0  0  0  0  0  0  0
    5.5020   -5.6186    0.0000 C   0  0  0  0  0  0  0  0  0  0  0  0
    4.6770   -5.6112    0.0000 C   0  0  0  0  0  0  0  0  0  0  0  0
    5.4891   -7.0475    0.0000 O   0  0  0  0  0  0  0  0  0  0  0  0
    4.2709   -4.8930    0.0000 C   0  0  0  0  0  0  0  0  0  0  0  0
    4.6898   -4.1823    0.0000 C   0  0  0  0  0  0  0  0  0  0  0  0
    4.2838   -3.4642    0.0000 C   0  0  0  0  0  0  0  0  0  0  0  0
    3.4588   -3.4567    0.0000 C   0  0  0  0  0  0  0  0  0  0  0  0
    3.0399   -4.1675    0.0000 C   0  0  0  0  0  0  0  0  0  0  0  0
    3.4460   -4.8856    0.0000 C   0  0  0  0  0  0  0  0  0  0  0  0
    3.0527   -2.7386    0.0000 O   0  0  0  0  0  0  0  0  0  0  0  0
    4.7027   -2.7534    0.0000 O   0  0  0  0  0  0  0  0  0  0  0  0
    9.2907   -8.3140    0.0000 C   0  0  0  0  0  0  0  0  0  0  0  0
   10.0049   -8.7269    0.0000 C   0  0  0  0  0  0  0  0  0  0  0  0
   10.7196   -8.3149    0.0000 C   0  0  0  0  0  0  0  0  0  0  0  0
    9.2912   -7.4890    0.0000 O   0  0  0  0  0  0  0  0  0  0  0  0
   13.5775   -8.3168    0.0000 O   0  0  0  0  0  0  0  0  0  0  0  0
   13.5764   -9.9668    0.0000 O   0  0  0  0  0  0  0  0  0  0  0  0
   11.4333   -9.5529    0.0000 C   0  0  0  0  0  0  0  0  0  0  0  0
   12.1475   -9.9659    0.0000 C   0  0  0  0  0  0  0  0  0  0  0  0
   12.8622   -9.5538    0.0000 C   0  0  0  0  0  0  0  0  0  0  0  0
   12.8628   -8.7288    0.0000 C   0  0  0  0  0  0  0  0  0  0  0  0
   12.1486   -8.3159    0.0000 C   0  0  0  0  0  0  0  0  0  0  0  0
   11.4338   -8.7279    0.0000 C   0  0  0  0  0  0  0  0  0  0  0  0
    8.5785   -8.7277    0.0000 O   0  0  0  0  0  0  0  0  0  0  0  0
 44 56  1  0  0  0  0
 27 26  1  0  0  0  0
 24 15  1  0  0  0  0
 26 23  2  0  0  0  0
 25 24  2  0  0  0  0
 26 25  1  0  0  0  0
  1  2  1  0  0  0  0
  2  3  1  0  0  0  0
  3  4  1  0  0  0  0
  4  5  1  0  0  0  0
  5  6  1  0  0  0  0
  1  6  1  0  0  0  0
  5 56  1  1  0  0  0
  8  9  1  0  0  0  0
  9 10  1  0  0  0  0
  8 11  2  0  0  0  0
 12 13  1  0  0  0  0
 12 14  2  0  0  0  0
 10 12  1  0  0  0  0
  7  8  1  0  0  0  0
  4  7  1  1  0  0  0
 15 16  1  0  0  0  0
 16 17  2  0  0  0  0
 17 18  1  0  0  0  0
 18 19  2  0  0  0  0
 19 20  1  0  0  0  0
 15 20  2  0  0  0  0
 18 21  1  0  0  0  0
 17 22  1  0  0  0  0
  3 27  1  6  0  0  0
  1 28  1  1  0  0  0
  1 29  1  0  0  0  0
 29 30  2  0  0  0  0
 29 31  1  0  0  0  0
 32 33  1  0  0  0  0
 33 34  2  0  0  0  0
 32 35  2  0  0  0  0
 36 37  1  0  0  0  0
 37 38  2  0  0  0  0
 38 39  1  0  0  0  0
 39 40  2  0  0  0  0
 40 41  1  0  0  0  0
 36 41  2  0  0  0  0
 39 42  1  0  0  0  0
 38 43  1  0  0  0  0
 34 36  1  0  0  0  0
 32 28  1  0  0  0  0
 53 48  1  0  0  0  0
 52 49  1  0  0  0  0
 55 50  2  0  0  0  0
 51 50  1  0  0  0  0
 52 51  2  0  0  0  0
 53 52  1  0  0  0  0
 54 53  2  0  0  0  0
 55 54  1  0  0  0  0
 44 45  1  0  0  0  0
 45 46  2  0  0  0  0
 44 47  2  0  0  0  0
 46 55  1  0  0  0  0
M  END
>  <cdx:fragmentId>
37

$$$$
