99968.cdx
  Mrv1902 05222410202D          

 32 35  0  0  0  0            999 V2000
    7.9101   -9.5755    0.0000 C   0  0  0  0  0  0  0  0  0  0  0  0
    8.6246   -9.9880    0.0000 C   0  0  0  0  0  0  0  0  0  0  0  0
    9.3391   -9.5755    0.0000 C   0  0  0  0  0  0  0  0  0  0  0  0
   10.0535   -9.9880    0.0000 C   0  0  0  0  0  0  0  0  0  0  0  0
   10.0535  -10.8130    0.0000 C   0  0  0  0  0  0  0  0  0  0  0  0
    9.3391  -11.2255    0.0000 C   0  0  0  0  0  0  0  0  0  0  0  0
    8.6246  -10.8130    0.0000 C   0  0  0  0  0  0  0  0  0  0  0  0
    7.1956   -9.9880    0.0000 O   0  0  0  0  0  0  0  0  0  0  0  0
    7.9101   -8.7505    0.0000 O   0  0  0  0  0  0  0  0  0  0  0  0
    9.3391  -12.0505    0.0000 O   0  0  0  0  0  0  0  0  0  0  0  0
   10.7680  -11.2255    0.0000 O   0  0  0  0  0  0  0  0  0  0  0  0
   10.7680   -9.5755    0.0000 O   0  0  0  0  0  0  0  0  0  0  0  0
    7.1956   -7.5130    0.0000 C   0  0  2  0  0  0  0  0  0  0  0  0
    7.1956   -8.3380    0.0000 C   0  0  2  0  0  0  0  0  0  0  0  0
    6.4812   -8.7505    0.0000 C   0  0  0  0  0  0  0  0  0  0  0  0
    5.7667   -8.3380    0.0000 C   0  0  0  0  0  0  0  0  0  0  0  0
    5.0522   -8.7505    0.0000 C   0  0  0  0  0  0  0  0  0  0  0  0
    4.3378   -8.3380    0.0000 C   0  0  0  0  0  0  0  0  0  0  0  0
    4.3378   -7.5130    0.0000 C   0  0  0  0  0  0  0  0  0  0  0  0
    5.0522   -7.1005    0.0000 C   0  0  0  0  0  0  0  0  0  0  0  0
    5.7667   -7.5130    0.0000 C   0  0  0  0  0  0  0  0  0  0  0  0
    6.4812   -7.1005    0.0000 O   0  0  0  0  0  0  0  0  0  0  0  0
    3.6233   -7.1005    0.0000 O   0  0  0  0  0  0  0  0  0  0  0  0
    5.0522   -9.5755    0.0000 O   0  0  0  0  0  0  0  0  0  0  0  0
    7.9101   -7.1005    0.0000 C   0  0  0  0  0  0  0  0  0  0  0  0
    8.6246   -7.5130    0.0000 C   0  0  0  0  0  0  0  0  0  0  0  0
    9.3391   -7.1005    0.0000 C   0  0  0  0  0  0  0  0  0  0  0  0
    9.3391   -6.2755    0.0000 C   0  0  0  0  0  0  0  0  0  0  0  0
    8.6246   -5.8630    0.0000 C   0  0  0  0  0  0  0  0  0  0  0  0
    7.9101   -6.2755    0.0000 C   0  0  0  0  0  0  0  0  0  0  0  0
   10.0535   -5.8630    0.0000 O   0  0  0  0  0  0  0  0  0  0  0  0
   10.0535   -7.5130    0.0000 O   0  0  0  0  0  0  0  0  0  0  0  0
  1  2  1  0  0  0  0
  2  3  1  0  0  0  0
  3  4  2  0  0  0  0
  4  5  1  0  0  0  0
  5  6  2  0  0  0  0
  6  7  1  0  0  0  0
  2  7  2  0  0  0  0
  1  8  2  0  0  0  0
  1  9  1  0  0  0  0
  6 10  1  0  0  0  0
  5 11  1  0  0  0  0
  4 12  1  0  0  0  0
 13 14  1  0  0  0  0
 14 15  1  0  0  0  0
 15 16  1  0  0  0  0
 16 17  1  0  0  0  0
 17 18  2  0  0  0  0
 18 19  1  0  0  0  0
 19 20  2  0  0  0  0
 20 21  1  0  0  0  0
 16 21  2  0  0  0  0
 21 22  1  0  0  0  0
 13 22  1  0  0  0  0
 19 23  1  0  0  0  0
 17 24  1  0  0  0  0
 25 26  1  0  0  0  0
 26 27  2  0  0  0  0
 27 28  1  0  0  0  0
 28 29  2  0  0  0  0
 29 30  1  0  0  0  0
 25 30  2  0  0  0  0
 28 31  1  0  0  0  0
 27 32  1  0  0  0  0
 13 25  1  6  0  0  0
 14  9  1  1  0  0  0
M  END
>  <cdx:fragmentId>
29

$$$$
