99976.cdx
  Mrv1902 05222410272D          

 32 35  0  0  0  0            999 V2000
    7.3194   -8.6116    0.0000 H   0  0  0  0  0  0  0  0  0  0  0  0
    7.3194   -7.7866    0.0000 O   0  0  0  0  0  0  0  0  0  0  0  0
    6.6049   -8.1991    0.0000 C   0  0  2  0  0  0  0  0  0  0  0  0
    5.8905   -7.7866    0.0000 C   0  0  1  0  0  0  0  0  0  0  0  0
    5.8905   -6.9616    0.0000 C   0  0  2  0  0  0  0  0  0  0  0  0
    6.6049   -6.5491    0.0000 C   0  0  1  0  0  0  0  0  0  0  0  0
    7.3194   -6.9616    0.0000 C   0  0  1  0  0  0  0  0  0  0  0  0
    8.0339   -6.5491    0.0000 C   0  0  0  0  0  0  0  0  0  0  0  0
    8.0339   -5.7241    0.0000 O   0  0  0  0  0  0  0  0  0  0  0  0
    6.6049   -5.7241    0.0000 O   0  0  0  0  0  0  0  0  0  0  0  0
    8.0339  -11.4991    0.0000 O   0  0  0  0  0  0  0  0  0  0  0  0
    5.1760  -11.4991    0.0000 O   0  0  0  0  0  0  0  0  0  0  0  0
   10.1773   -9.4366    0.0000 O   0  0  0  0  0  0  0  0  0  0  0  0
    9.4628   -9.0241    0.0000 C   0  0  0  0  0  0  0  0  0  0  0  0
    5.1760   -6.5491    0.0000 O   0  0  0  0  0  0  0  0  0  0  0  0
    5.1760   -8.1991    0.0000 O   0  0  0  0  0  0  0  0  0  0  0  0
    6.6049  -11.4991    0.0000 O   0  0  0  0  0  0  0  0  0  0  0  0
    7.3194  -10.2616    0.0000 C   0  0  0  0  0  0  0  0  0  0  0  0
    6.6049  -10.6741    0.0000 C   0  0  0  0  0  0  0  0  0  0  0  0
    5.8905  -10.2616    0.0000 C   0  0  0  0  0  0  0  0  0  0  0  0
    5.1760  -10.6741    0.0000 C   0  0  0  0  0  0  0  0  0  0  0  0
    4.4615  -10.2616    0.0000 C   0  0  0  0  0  0  0  0  0  0  0  0
    4.4615   -9.4366    0.0000 C   0  0  0  0  0  0  0  0  0  0  0  0
    5.1760   -9.0241    0.0000 C   0  0  0  0  0  0  0  0  0  0  0  0
    5.8905   -9.4366    0.0000 C   0  0  0  0  0  0  0  0  0  0  0  0
    6.6049   -9.0241    0.0000 C   0  0  1  0  0  0  0  0  0  0  0  0
    7.3194   -9.4366    0.0000 C   0  0  0  0  0  0  0  0  0  0  0  0
    8.0339   -9.0241    0.0000 C   0  0  0  0  0  0  0  0  0  0  0  0
    8.7483   -9.4366    0.0000 C   0  0  0  0  0  0  0  0  0  0  0  0
    8.7483  -10.2616    0.0000 C   0  0  0  0  0  0  0  0  0  0  0  0
    8.0339  -10.6741    0.0000 C   0  0  0  0  0  0  0  0  0  0  0  0
    5.8905   -8.6116    0.0000 H   0  0  0  0  0  0  0  0  0  0  0  0
 31 11  1  0  0  0  0
 21 12  1  0  0  0  0
 29 14  1  0  0  0  0
 14 13  1  0  0  0  0
 26  3  1  0  0  0  0
  3  1  1  6  0  0  0
 19 17  2  0  0  0  0
 31 18  2  0  0  0  0
 27 18  1  0  0  0  0
 19 18  1  0  0  0  0
 20 19  1  0  0  0  0
 25 20  2  0  0  0  0
 21 20  1  0  0  0  0
 22 21  2  0  0  0  0
 23 22  1  0  0  0  0
 24 23  2  0  0  0  0
 25 24  1  0  0  0  0
 26 25  1  0  0  0  0
 26 27  1  0  0  0  0
 28 27  2  0  0  0  0
 29 28  1  0  0  0  0
 30 29  2  0  0  0  0
 31 30  1  0  0  0  0
  3  2  1  0  0  0  0
  3  4  1  0  0  0  0
  4  5  1  0  0  0  0
  5  6  1  0  0  0  0
  6  7  1  0  0  0  0
  2  7  1  0  0  0  0
  8  9  1  0  0  0  0
  7  8  1  1  0  0  0
  6 10  1  6  0  0  0
  5 15  1  1  0  0  0
  4 16  1  6  0  0  0
 26 32  1  1  0  0  0
M  END
>  <cdx:fragmentId>
5

$$$$
