99974.cdx
  Mrv1902 05222410282D          

 10  9  0  0  0  0            999 V2000
    7.5529   -7.9255    0.0000 O   0  0  0  0  0  0  0  0  0  0  0  0
    6.8384   -9.9880    0.0000 O   0  0  0  0  0  0  0  0  0  0  0  0
    5.4095   -9.1630    0.0000 O   0  0  0  0  0  0  0  0  0  0  0  0
    6.1239   -7.9255    0.0000 O   0  0  0  0  0  0  0  0  0  0  0  0
    8.9818   -8.7505    0.0000 O   0  0  0  0  0  0  0  0  0  0  0  0
    8.2674   -9.9880    0.0000 O   0  0  0  0  0  0  0  0  0  0  0  0
    6.1239   -8.7505    0.0000 C   0  0  0  0  0  0  0  0  0  0  0  0
    6.8384   -9.1630    0.0000 C   0  0  2  0  0  0  0  0  0  0  0  0
    7.5529   -8.7505    0.0000 C   0  0  1  0  0  0  0  0  0  0  0  0
    8.2674   -9.1630    0.0000 C   0  0  0  0  0  0  0  0  0  0  0  0
  9  1  1  6  0  0  0
  8  2  1  6  0  0  0
  7  3  1  0  0  0  0
  7  4  2  0  0  0  0
 10  5  1  0  0  0  0
 10  6  2  0  0  0  0
  8  7  1  0  0  0  0
  9  8  1  0  0  0  0
 10  9  1  0  0  0  0
M  END
>  <cdx:fragmentId>
5

$$$$
