99978.cdx
  Mrv1902 05222410182D          

 14 14  0  0  0  0            999 V2000
    8.0595   -7.6397    0.0000 C   0  0  0  0  0  0  0  0  0  0  0  0
    7.3450   -8.0522    0.0000 C   0  0  0  0  0  0  0  0  0  0  0  0
    7.3450   -8.8772    0.0000 C   0  0  0  0  0  0  0  0  0  0  0  0
    6.6305   -9.2897    0.0000 C   0  0  0  0  0  0  0  0  0  0  0  0
    5.9160   -8.8772    0.0000 C   0  0  0  0  0  0  0  0  0  0  0  0
    5.9160   -8.0522    0.0000 C   0  0  0  0  0  0  0  0  0  0  0  0
    6.6305   -7.6397    0.0000 C   0  0  0  0  0  0  0  0  0  0  0  0
    8.0595   -6.8147    0.0000 O   0  0  0  0  0  0  0  0  0  0  0  0
    8.7739   -8.0522    0.0000 O   0  0  0  0  0  0  0  0  0  0  0  0
    5.2016   -7.6397    0.0000 O   0  0  0  0  0  0  0  0  0  0  0  0
    5.2016   -9.2897    0.0000 O   0  0  0  0  0  0  0  0  0  0  0  0
    6.6305  -10.1147    0.0000 O   0  0  0  0  0  0  0  0  0  0  0  0
    9.4884   -7.6397    0.0000 C   0  0  0  0  0  0  0  0  0  0  0  0
    4.4871   -8.0522    0.0000 C   0  0  0  0  0  0  0  0  0  0  0  0
  1  2  1  0  0  0  0
  2  3  1  0  0  0  0
  3  4  2  0  0  0  0
  4  5  1  0  0  0  0
  5  6  2  0  0  0  0
  6  7  1  0  0  0  0
  2  7  2  0  0  0  0
  1  8  2  0  0  0  0
  1  9  1  0  0  0  0
  6 10  1  0  0  0  0
  5 11  1  0  0  0  0
  4 12  1  0  0  0  0
  9 13  1  0  0  0  0
 10 14  1  0  0  0  0
M  END
>  <cdx:fragmentId>
5

$$$$
