99973.cdx
  Mrv1902 05222410262D          

 32 35  0  0  0  0            999 V2000
   10.4108   -7.8966    0.0000 O   0  0  0  0  0  0  0  0  0  0  0  0
   10.4108   -6.2466    0.0000 O   0  0  0  0  0  0  0  0  0  0  0  0
    8.2674   -6.6591    0.0000 C   0  0  0  0  0  0  0  0  0  0  0  0
    8.9818   -6.2466    0.0000 C   0  0  0  0  0  0  0  0  0  0  0  0
    9.6963   -6.6591    0.0000 C   0  0  0  0  0  0  0  0  0  0  0  0
    9.6963   -7.4841    0.0000 C   0  0  0  0  0  0  0  0  0  0  0  0
    8.9818   -7.8966    0.0000 C   0  0  0  0  0  0  0  0  0  0  0  0
    8.2674   -7.4841    0.0000 C   0  0  0  0  0  0  0  0  0  0  0  0
    5.4095   -9.9591    0.0000 O   0  0  0  0  0  0  0  0  0  0  0  0
    3.9805   -7.4841    0.0000 O   0  0  0  0  0  0  0  0  0  0  0  0
    9.6963   -9.9591    0.0000 O   0  0  0  0  0  0  0  0  0  0  0  0
    9.6963  -11.6091    0.0000 O   0  0  0  0  0  0  0  0  0  0  0  0
    8.2674  -12.4341    0.0000 O   0  0  0  0  0  0  0  0  0  0  0  0
    6.8384  -11.6091    0.0000 C   0  0  0  0  0  0  0  0  0  0  0  0
    7.5529  -11.1966    0.0000 C   0  0  1  0  0  0  0  0  0  0  0  0
    8.2674  -11.6091    0.0000 C   0  0  1  0  0  0  0  0  0  0  0  0
    8.9818  -11.1966    0.0000 C   0  0  2  0  0  0  0  0  0  0  0  0
    8.9818  -10.3716    0.0000 C   0  0  2  0  0  0  0  0  0  0  0  0
    8.2674   -9.9591    0.0000 C   0  0  1  0  0  0  0  0  0  0  0  0
    7.5529  -10.3716    0.0000 O   0  0  0  0  0  0  0  0  0  0  0  0
    8.2674   -9.1341    0.0000 O   0  0  0  0  0  0  0  0  0  0  0  0
    6.8384   -9.9591    0.0000 O   0  0  0  0  0  0  0  0  0  0  0  0
    6.8384   -7.4841    0.0000 O   0  0  0  0  0  0  0  0  0  0  0  0
    6.1239   -7.8966    0.0000 C   0  0  0  0  0  0  0  0  0  0  0  0
    5.4095   -7.4841    0.0000 C   0  0  0  0  0  0  0  0  0  0  0  0
    4.6950   -7.8966    0.0000 C   0  0  0  0  0  0  0  0  0  0  0  0
    4.6950   -8.7216    0.0000 C   0  0  0  0  0  0  0  0  0  0  0  0
    5.4095   -9.1341    0.0000 C   0  0  0  0  0  0  0  0  0  0  0  0
    6.1239   -8.7216    0.0000 C   0  0  0  0  0  0  0  0  0  0  0  0
    6.8384   -9.1341    0.0000 C   0  0  0  0  0  0  0  0  0  0  0  0
    7.5529   -8.7216    0.0000 C   0  0  1  0  0  0  0  0  0  0  0  0
    7.5529   -7.8966    0.0000 C   0  0  2  0  0  0  0  0  0  0  0  0
 32  8  1  1  0  0  0
  6  1  1  0  0  0  0
  5  2  1  0  0  0  0
  8  3  2  0  0  0  0
  4  3  1  0  0  0  0
  5  4  2  0  0  0  0
  6  5  1  0  0  0  0
  7  6  2  0  0  0  0
  8  7  1  0  0  0  0
 28  9  1  0  0  0  0
 26 10  1  0  0  0  0
 31 21  1  1  0  0  0
 19 21  1  1  0  0  0
 18 11  1  6  0  0  0
 17 12  1  6  0  0  0
 16 13  1  1  0  0  0
 15 14  1  6  0  0  0
 20 15  1  0  0  0  0
 16 15  1  0  0  0  0
 17 16  1  0  0  0  0
 18 17  1  0  0  0  0
 19 18  1  0  0  0  0
 20 19  1  0  0  0  0
 30 22  2  0  0  0  0
 32 23  1  0  0  0  0
 24 23  1  0  0  0  0
 29 24  2  0  0  0  0
 25 24  1  0  0  0  0
 26 25  2  0  0  0  0
 27 26  1  0  0  0  0
 28 27  2  0  0  0  0
 29 28  1  0  0  0  0
 30 29  1  0  0  0  0
 31 30  1  0  0  0  0
 32 31  1  0  0  0  0
M  END
>  <cdx:fragmentId>
5

$$$$
