99971.cdx
  Mrv1902 05222410262D          

 33 36  0  0  0  0            999 V2000
    7.9101  -10.3716    0.0000 C   0  0  0  0  0  0  0  0  0  0  0  0
    8.6246  -10.7841    0.0000 C   0  0  0  0  0  0  0  0  0  0  0  0
    9.3391  -10.3716    0.0000 C   0  0  0  0  0  0  0  0  0  0  0  0
   10.0535  -10.7841    0.0000 C   0  0  0  0  0  0  0  0  0  0  0  0
   10.0535  -11.6091    0.0000 C   0  0  0  0  0  0  0  0  0  0  0  0
    9.3391  -12.0216    0.0000 C   0  0  0  0  0  0  0  0  0  0  0  0
    8.6246  -11.6091    0.0000 C   0  0  0  0  0  0  0  0  0  0  0  0
    7.1956  -10.7841    0.0000 O   0  0  0  0  0  0  0  0  0  0  0  0
    7.9101   -9.5466    0.0000 O   0  0  0  0  0  0  0  0  0  0  0  0
    9.3391  -12.8466    0.0000 O   0  0  0  0  0  0  0  0  0  0  0  0
   10.7680  -12.0216    0.0000 O   0  0  0  0  0  0  0  0  0  0  0  0
   10.7680  -10.3716    0.0000 O   0  0  0  0  0  0  0  0  0  0  0  0
    7.1956   -8.3091    0.0000 C   0  0  2  0  0  0  0  0  0  0  0  0
    7.1956   -9.1341    0.0000 C   0  0  2  0  0  0  0  0  0  0  0  0
    6.4812   -9.5466    0.0000 C   0  0  0  0  0  0  0  0  0  0  0  0
    5.7667   -9.1341    0.0000 C   0  0  0  0  0  0  0  0  0  0  0  0
    5.0522   -9.5466    0.0000 C   0  0  0  0  0  0  0  0  0  0  0  0
    4.3378   -9.1341    0.0000 C   0  0  0  0  0  0  0  0  0  0  0  0
    4.3378   -8.3091    0.0000 C   0  0  0  0  0  0  0  0  0  0  0  0
    5.0522   -7.8966    0.0000 C   0  0  0  0  0  0  0  0  0  0  0  0
    5.7667   -8.3091    0.0000 C   0  0  0  0  0  0  0  0  0  0  0  0
    6.4812   -7.8966    0.0000 O   0  0  0  0  0  0  0  0  0  0  0  0
    7.9101   -7.8966    0.0000 C   0  0  0  0  0  0  0  0  0  0  0  0
    7.9101   -7.0716    0.0000 C   0  0  0  0  0  0  0  0  0  0  0  0
    8.6246   -6.6591    0.0000 C   0  0  0  0  0  0  0  0  0  0  0  0
    9.3391   -7.0716    0.0000 C   0  0  0  0  0  0  0  0  0  0  0  0
    9.3391   -7.8966    0.0000 C   0  0  0  0  0  0  0  0  0  0  0  0
    8.6246   -8.3091    0.0000 C   0  0  0  0  0  0  0  0  0  0  0  0
   10.0535   -8.3091    0.0000 O   0  0  0  0  0  0  0  0  0  0  0  0
   10.0535   -6.6591    0.0000 O   0  0  0  0  0  0  0  0  0  0  0  0
    8.6246   -5.8341    0.0000 O   0  0  0  0  0  0  0  0  0  0  0  0
    3.6233   -7.8966    0.0000 O   0  0  0  0  0  0  0  0  0  0  0  0
    5.0522  -10.3716    0.0000 O   0  0  0  0  0  0  0  0  0  0  0  0
  1  2  1  0  0  0  0
  2  3  1  0  0  0  0
  3  4  2  0  0  0  0
  4  5  1  0  0  0  0
  5  6  2  0  0  0  0
  6  7  1  0  0  0  0
  2  7  2  0  0  0  0
  1  8  2  0  0  0  0
  1  9  1  0  0  0  0
  6 10  1  0  0  0  0
  5 11  1  0  0  0  0
  4 12  1  0  0  0  0
 13 14  1  0  0  0  0
 14 15  1  0  0  0  0
 15 16  1  0  0  0  0
 16 17  1  0  0  0  0
 17 18  2  0  0  0  0
 18 19  1  0  0  0  0
 19 20  2  0  0  0  0
 20 21  1  0  0  0  0
 16 21  2  0  0  0  0
 21 22  1  0  0  0  0
 13 22  1  0  0  0  0
 23 24  1  0  0  0  0
 24 25  2  0  0  0  0
 25 26  1  0  0  0  0
 26 27  2  0  0  0  0
 27 28  1  0  0  0  0
 23 28  2  0  0  0  0
 27 29  1  0  0  0  0
 26 30  1  0  0  0  0
 25 31  1  0  0  0  0
 13 23  1  6  0  0  0
 19 32  1  0  0  0  0
 17 33  1  0  0  0  0
 14  9  1  1  0  0  0
M  END
>  <cdx:fragmentId>
29

$$$$
