99983.cdx
  Mrv1902 05222410202D          

 15 16  0  0  0  0            999 V2000
    5.6562   -6.7100    0.0000 C   0  0  0  0  0  0  0  0  0  0  0  0
    5.6562   -7.5350    0.0000 C   0  0  0  0  0  0  0  0  0  0  0  0
    6.3706   -7.9475    0.0000 C   0  0  0  0  0  0  0  0  0  0  0  0
    7.0851   -7.5350    0.0000 C   0  0  0  0  0  0  0  0  0  0  0  0
    7.0851   -6.7100    0.0000 C   0  0  0  0  0  0  0  0  0  0  0  0
    6.3706   -6.2975    0.0000 C   0  0  0  0  0  0  0  0  0  0  0  0
    7.7996   -7.9475    0.0000 C   0  0  0  0  0  0  0  0  0  0  0  0
    8.5141   -7.5350    0.0000 C   0  0  0  0  0  0  0  0  0  0  0  0
    8.5141   -6.7100    0.0000 C   0  0  0  0  0  0  0  0  0  0  0  0
    7.7996   -6.2975    0.0000 C   0  0  0  0  0  0  0  0  0  0  0  0
    6.3706   -5.4725    0.0000 C   0  0  0  0  0  0  0  0  0  0  0  0
    6.3706   -8.7725    0.0000 C   0  0  0  0  0  0  0  0  0  0  0  0
    7.0851   -9.1850    0.0000 C   0  0  0  0  0  0  0  0  0  0  0  0
    5.6562   -9.1850    0.0000 C   0  0  0  0  0  0  0  0  0  0  0  0
    9.2285   -7.9475    0.0000 C   0  0  0  0  0  0  0  0  0  0  0  0
  1  2  1  0  0  0  0
  2  3  1  0  0  0  0
  3  4  1  0  0  0  0
  4  5  2  0  0  0  0
  5  6  1  0  0  0  0
  6  1  1  0  0  0  0
  4  7  1  0  0  0  0
  7  8  2  0  0  0  0
  8  9  1  0  0  0  0
  9 10  1  0  0  0  0
 10  5  1  0  0  0  0
  6 11  1  0  0  0  0
  3 12  1  0  0  0  0
 12 13  1  0  0  0  0
 12 14  1  0  0  0  0
  8 15  1  0  0  0  0
M  END
>  <cdx:fragmentId>
5

$$$$
