99986.cdx
  Mrv1902 05222410182D          

 17 16  0  0  0  0            999 V2000
    6.1239   -8.4563    0.0000 C   0  0  0  0  0  0  0  0  0  0  0  0
    5.4095   -8.8688    0.0000 C   0  0  0  0  0  0  0  0  0  0  0  0
    4.6950   -8.4563    0.0000 C   0  0  0  0  0  0  0  0  0  0  0  0
    4.6950   -7.6313    0.0000 C   0  0  0  0  0  0  0  0  0  0  0  0
    6.1239   -7.6313    0.0000 O   0  0  0  0  0  0  0  0  0  0  0  0
    6.8384   -8.8688    0.0000 O   0  0  0  0  0  0  0  0  0  0  0  0
    3.9805   -8.8688    0.0000 C   0  0  0  0  0  0  0  0  0  0  0  0
    8.2674   -6.3937    0.0000 C   0  0  0  0  0  0  0  0  0  0  0  0
    8.2674   -7.2188    0.0000 C   0  0  0  0  0  0  0  0  0  0  0  0
    7.5529   -7.6313    0.0000 C   0  0  0  0  0  0  0  0  0  0  0  0
    7.5529   -8.4563    0.0000 C   0  0  0  0  0  0  0  0  0  0  0  0
    8.2674   -8.8688    0.0000 C   0  0  0  0  0  0  0  0  0  0  0  0
    8.9818   -9.2813    0.0000 C   0  0  0  0  0  0  0  0  0  0  0  0
    9.6963   -9.6937    0.0000 C   0  0  0  0  0  0  0  0  0  0  0  0
    9.6963  -10.5188    0.0000 C   0  0  0  0  0  0  0  0  0  0  0  0
   10.4108   -9.2813    0.0000 C   0  0  0  0  0  0  0  0  0  0  0  0
    8.9818   -7.6313    0.0000 C   0  0  0  0  0  0  0  0  0  0  0  0
  1  2  1  0  0  0  0
  2  3  2  0  0  0  0
  3  4  1  0  0  0  0
  1  5  2  0  0  0  0
  1  6  1  0  0  0  0
  3  7  1  0  0  0  0
  8  9  1  0  0  0  0
  9 10  1  0  0  0  0
 10 11  1  0  0  0  0
 11 12  1  0  0  0  0
 12 13  3  0  0  0  0
 13 14  1  0  0  0  0
 14 15  2  0  0  0  0
 14 16  1  0  0  0  0
  9 17  1  0  0  0  0
  6 11  1  0  0  0  0
M  END
>  <cdx:fragmentId>
19

$$$$
