99988.cdx
  Mrv1902 05222410272D          

 24 26  0  0  0  0            999 V2000
    5.0237   -9.4600    0.0000 C   0  0  0  0  0  0  0  0  0  0  0  0
    5.0237  -10.2850    0.0000 C   0  0  2  0  0  0  0  0  0  0  0  0
    5.7381  -10.6975    0.0000 C   0  0  2  0  0  0  0  0  0  0  0  0
    6.4526  -10.2850    0.0000 C   0  0  0  0  0  0  0  0  0  0  0  0
    6.4526   -9.4600    0.0000 C   0  0  1  0  0  0  0  0  0  0  0  0
    5.7381   -9.0475    0.0000 C   0  0  0  0  0  0  0  0  0  0  0  0
    7.1671  -10.6975    0.0000 C   0  0  0  0  0  0  0  0  0  0  0  0
    7.8816  -10.2850    0.0000 C   0  0  0  0  0  0  0  0  0  0  0  0
    7.8816   -9.4600    0.0000 C   0  0  0  0  0  0  0  0  0  0  0  0
    7.1671   -9.0475    0.0000 C   0  0  1  0  0  0  0  0  0  0  0  0
    7.1671   -8.2225    0.0000 C   0  0  0  0  0  0  0  0  0  0  0  0
    7.8816   -7.8100    0.0000 C   0  0  0  0  0  0  0  0  0  0  0  0
    7.8816   -6.9850    0.0000 C   0  0  0  0  0  0  0  0  0  0  0  0
    8.5490   -6.5001    0.0000 C   0  0  0  0  0  0  0  0  0  0  0  0
    8.2941   -5.7155    0.0000 O   0  0  0  0  0  0  0  0  0  0  0  0
    7.4691   -5.7155    0.0000 C   0  0  0  0  0  0  0  0  0  0  0  0
    7.2141   -6.5001    0.0000 C   0  0  0  0  0  0  0  0  0  0  0  0
    9.3336   -6.7550    0.0000 O   0  0  0  0  0  0  0  0  0  0  0  0
    6.1506  -11.4120    0.0000 C   0  0  0  0  0  0  0  0  0  0  0  0
    5.7381  -12.1264    0.0000 O   0  0  0  0  0  0  0  0  0  0  0  0
    6.4526   -8.6350    0.0000 C   0  0  0  0  0  0  0  0  0  0  0  0
    4.3092  -10.6975    0.0000 O   0  0  0  0  0  0  0  0  0  0  0  0
    5.3256  -11.4120    0.0000 C   0  0  0  0  0  0  0  0  0  0  0  0
    8.5960   -9.0475    0.0000 C   0  0  0  0  0  0  0  0  0  0  0  0
  1  2  1  0  0  0  0
  2  3  1  0  0  0  0
  3  4  1  0  0  0  0
  4  5  1  0  0  0  0
  5  6  1  0  0  0  0
  6  1  1  0  0  0  0
  4  7  1  0  0  0  0
  7  8  1  0  0  0  0
  8  9  1  0  0  0  0
  9 10  1  0  0  0  0
 10  5  1  0  0  0  0
 10 11  1  6  0  0  0
 11 12  1  0  0  0  0
 12 13  1  0  0  0  0
 13 14  1  0  0  0  0
 14 15  1  0  0  0  0
 15 16  1  0  0  0  0
 16 17  1  0  0  0  0
 17 13  1  0  0  0  0
 14 18  2  0  0  0  0
  3 19  1  6  0  0  0
 19 20  1  0  0  0  0
  5 21  1  6  0  0  0
  2 22  1  6  0  0  0
  3 23  1  1  0  0  0
  9 24  1  0  0  0  0
M  END
>  <cdx:fragmentId>
5

$$$$
