99985.cdx
  Mrv1902 05222410182D          

 21 20  0  0  0  0            999 V2000
    1.3135   -8.2304    0.0000 C   0  0  0  0  0  0  0  0  0  0  0  0
    2.0280   -8.6429    0.0000 C   0  0  0  0  0  0  0  0  0  0  0  0
    2.7424   -8.2304    0.0000 C   0  0  0  0  0  0  0  0  0  0  0  0
    3.4569   -8.6429    0.0000 C   0  0  0  0  0  0  0  0  0  0  0  0
    4.1714   -8.2304    0.0000 C   0  0  0  0  0  0  0  0  0  0  0  0
    4.8859   -8.6429    0.0000 C   0  0  0  0  0  0  0  0  0  0  0  0
    5.6003   -8.2304    0.0000 C   0  0  0  0  0  0  0  0  0  0  0  0
    6.3148   -8.6429    0.0000 C   0  0  0  0  0  0  0  0  0  0  0  0
    7.0293   -8.2304    0.0000 C   0  0  0  0  0  0  0  0  0  0  0  0
    7.7437   -8.6429    0.0000 C   0  0  0  0  0  0  0  0  0  0  0  0
    8.4582   -8.2304    0.0000 C   0  0  0  0  0  0  0  0  0  0  0  0
    9.1727   -8.6429    0.0000 C   0  0  0  0  0  0  0  0  0  0  0  0
    9.8871   -8.2304    0.0000 C   0  0  0  0  0  0  0  0  0  0  0  0
   10.6016   -8.6429    0.0000 C   0  0  0  0  0  0  0  0  0  0  0  0
   11.3161   -8.2304    0.0000 C   0  0  0  0  0  0  0  0  0  0  0  0
   12.0306   -8.6429    0.0000 C   0  0  0  0  0  0  0  0  0  0  0  0
   12.7450   -8.2304    0.0000 C   0  0  0  0  0  0  0  0  0  0  0  0
   13.4595   -8.6429    0.0000 C   0  0  0  0  0  0  0  0  0  0  0  0
   14.1740   -8.2304    0.0000 C   0  0  0  0  0  0  0  0  0  0  0  0
   14.8884   -8.6429    0.0000 C   0  0  0  0  0  0  0  0  0  0  0  0
    0.5990   -8.6429    0.0000 O   0  0  0  0  0  0  0  0  0  0  0  0
  1  2  1  0  0  0  0
  2  3  1  0  0  0  0
  3  4  1  0  0  0  0
  4  5  1  0  0  0  0
  5  6  1  0  0  0  0
  6  7  1  0  0  0  0
  7  8  1  0  0  0  0
  8  9  1  0  0  0  0
  9 10  1  0  0  0  0
 10 11  1  0  0  0  0
 11 12  1  0  0  0  0
 12 13  1  0  0  0  0
 13 14  1  0  0  0  0
 14 15  1  0  0  0  0
 15 16  1  0  0  0  0
 16 17  1  0  0  0  0
 17 18  1  0  0  0  0
 18 19  1  0  0  0  0
 19 20  1  0  0  0  0
  1 21  1  0  0  0  0
M  END
>  <cdx:fragmentId>
5

$$$$
