9998.cdx
  Mrv1902 05222410192D          

 58 63  0  0  0  0            999 V2000
    5.4730  -12.5400    0.0000 C   0  0  2  0  0  0  0  0  0  0  0  0
    5.4730  -13.3650    0.0000 C   0  0  0  0  0  0  0  0  0  0  0  0
    6.1875  -13.7775    0.0000 O   0  0  0  0  0  0  0  0  0  0  0  0
    6.9020  -13.3650    0.0000 C   0  0  0  0  0  0  0  0  0  0  0  0
    6.9020  -12.5400    0.0000 C   0  0  0  0  0  0  0  0  0  0  0  0
    6.1875  -12.1275    0.0000 C   0  0  2  0  0  0  0  0  0  0  0  0
    7.6164  -13.7775    0.0000 C   0  0  0  0  0  0  0  0  0  0  0  0
    8.3309  -13.3650    0.0000 C   0  0  0  0  0  0  0  0  0  0  0  0
    8.3309  -12.5400    0.0000 C   0  0  0  0  0  0  0  0  0  0  0  0
    7.6164  -12.1275    0.0000 C   0  0  0  0  0  0  0  0  0  0  0  0
    7.6164  -14.6025    0.0000 O   0  0  0  0  0  0  0  0  0  0  0  0
    9.0454  -13.7775    0.0000 O   0  0  0  0  0  0  0  0  0  0  0  0
    4.7586  -13.7775    0.0000 O   0  0  0  0  0  0  0  0  0  0  0  0
    4.7586  -12.1275    0.0000 O   0  0  0  0  0  0  0  0  0  0  0  0
    6.1875  -11.3025    0.0000 C   0  0  2  0  0  0  0  0  0  0  0  0
    7.6164  -11.3025    0.0000 C   0  0  0  0  0  0  0  0  0  0  0  0
    6.8196  -11.0890    0.0000 O   0  0  0  0  0  0  0  0  0  0  0  0
    8.3875   -9.9275    0.0000 O   0  0  0  0  0  0  0  0  0  0  0  0
    4.2690  -11.6595    0.0000 O   0  0  0  0  0  0  0  0  0  0  0  0
    4.2046  -10.2321    0.0000 O   0  0  0  0  0  0  0  0  0  0  0  0
    4.6489  -10.9272    0.0000 C   0  0  0  0  0  0  0  0  0  0  0  0
    5.4730  -10.8900    0.0000 C   0  0  0  0  0  0  0  0  0  0  0  0
    6.6000  -10.5880    0.0000 C   0  0  0  0  0  0  0  0  0  0  0  0
    6.1875   -9.8736    0.0000 O   0  0  0  0  0  0  0  0  0  0  0  0
    7.3969  -10.8016    0.0000 O   0  0  0  0  0  0  0  0  0  0  0  0
    6.6000   -9.1591    0.0000 C   0  0  1  0  0  0  0  0  0  0  0  0
    7.3189   -9.5639    0.0000 C   0  0  1  0  0  0  0  0  0  0  0  0
    8.0289   -9.1437    0.0000 C   0  0  2  0  0  0  0  0  0  0  0  0
    8.0200   -8.3187    0.0000 C   0  0  1  0  0  0  0  0  0  0  0  0
    7.3011   -7.9140    0.0000 O   0  0  0  0  0  0  0  0  0  0  0  0
    6.5911   -8.3341    0.0000 C   0  0  2  0  0  0  0  0  0  0  0  0
    8.7300   -7.8986    0.0000 O   0  0  0  0  0  0  0  0  0  0  0  0
    5.8722   -7.9294    0.0000 C   0  0  0  0  0  0  0  0  0  0  0  0
    7.3189  -10.3889    0.0000 O   0  0  0  0  0  0  0  0  0  0  0  0
    9.4488   -8.3034    0.0000 C   0  0  0  0  0  0  0  0  0  0  0  0
   10.1588   -7.8832    0.0000 C   0  0  0  0  0  0  0  0  0  0  0  0
    9.4577   -9.1283    0.0000 O   0  0  0  0  0  0  0  0  0  0  0  0
   10.8820   -8.2802    0.0000 C   0  0  0  0  0  0  0  0  0  0  0  0
   11.5874   -7.8524    0.0000 C   0  0  0  0  0  0  0  0  0  0  0  0
   11.5874   -7.0276    0.0000 C   0  0  0  0  0  0  0  0  0  0  0  0
   10.8820   -6.6306    0.0000 C   0  0  0  0  0  0  0  0  0  0  0  0
   10.1588   -7.0584    0.0000 C   0  0  0  0  0  0  0  0  0  0  0  0
   10.8731   -5.8056    0.0000 O   0  0  0  0  0  0  0  0  0  0  0  0
   12.2996   -6.6112    0.0000 O   0  0  0  0  0  0  0  0  0  0  0  0
   12.3063   -8.2572    0.0000 O   0  0  0  0  0  0  0  0  0  0  0  0
    5.4730  -11.7150    0.0000 H   0  0  0  0  0  0  0  0  0  0  0  0
    5.1623   -8.3495    0.0000 O   0  0  0  0  0  0  0  0  0  0  0  0
    4.4434   -7.9447    0.0000 C   0  0  0  0  0  0  0  0  0  0  0  0
    3.7334   -8.3649    0.0000 C   0  0  0  0  0  0  0  0  0  0  0  0
    4.4345   -7.1198    0.0000 O   0  0  0  0  0  0  0  0  0  0  0  0
    3.0102   -7.9679    0.0000 C   0  0  0  0  0  0  0  0  0  0  0  0
    2.3048   -8.3957    0.0000 C   0  0  0  0  0  0  0  0  0  0  0  0
    2.3048   -9.2205    0.0000 C   0  0  0  0  0  0  0  0  0  0  0  0
    3.0102   -9.6175    0.0000 C   0  0  0  0  0  0  0  0  0  0  0  0
    3.7334   -9.1897    0.0000 C   0  0  0  0  0  0  0  0  0  0  0  0
    1.5859   -7.9909    0.0000 O   0  0  0  0  0  0  0  0  0  0  0  0
    3.0191  -10.4425    0.0000 O   0  0  0  0  0  0  0  0  0  0  0  0
    1.5926   -9.6369    0.0000 O   0  0  0  0  0  0  0  0  0  0  0  0
  1  2  1  0  0  0  0
  2  3  1  0  0  0  0
  3  4  1  0  0  0  0
  4  5  2  0  0  0  0
  5  6  1  0  0  0  0
  6  1  1  0  0  0  0
  4  7  1  0  0  0  0
  7  8  2  0  0  0  0
  8  9  1  0  0  0  0
  9 10  2  0  0  0  0
 10  5  1  0  0  0  0
  7 11  1  0  0  0  0
  8 12  1  0  0  0  0
  2 13  2  0  0  0  0
  1 14  1  1  0  0  0
  6 15  1  0  0  0  0
 10 16  1  0  0  0  0
 16 17  2  0  0  0  0
 16 18  1  0  0  0  0
 21 19  1  0  0  0  0
 15 22  1  6  0  0  0
 21 20  2  0  0  0  0
 22 21  1  0  0  0  0
 15 23  1  0  0  0  0
 23 24  1  0  0  0  0
 23 25  2  0  0  0  0
 26 24  1  6  0  0  0
 26 27  1  0  0  0  0
 27 28  1  0  0  0  0
 28 29  1  0  0  0  0
 29 30  1  0  0  0  0
 30 31  1  0  0  0  0
 31 26  1  0  0  0  0
 29 32  1  1  0  0  0
 31 33  1  1  0  0  0
 27 34  1  1  0  0  0
 32 35  1  0  0  0  0
 35 36  1  0  0  0  0
 35 37  2  0  0  0  0
 36 38  2  0  0  0  0
 38 39  1  0  0  0  0
 39 40  2  0  0  0  0
 40 41  1  0  0  0  0
 41 42  2  0  0  0  0
 42 36  1  0  0  0  0
 41 43  1  0  0  0  0
 40 44  1  0  0  0  0
 39 45  1  0  0  0  0
 28 18  1  6  0  0  0
  6 46  1  6  0  0  0
 33 47  1  0  0  0  0
 47 48  1  0  0  0  0
 48 49  1  0  0  0  0
 48 50  2  0  0  0  0
 49 51  2  0  0  0  0
 51 52  1  0  0  0  0
 52 53  2  0  0  0  0
 53 54  1  0  0  0  0
 54 55  2  0  0  0  0
 55 49  1  0  0  0  0
 52 56  1  0  0  0  0
 54 57  1  0  0  0  0
 53 58  1  0  0  0  0
M  END
>  <cdx:fragmentId>
46

$$$$
