99987.cdx
  Mrv1902 05222410182D          

 24 27  0  0  0  0            999 V2000
    3.8412   -9.0200    0.0000 O   0  0  0  0  0  0  0  0  0  0  0  0
    3.8412   -9.8450    0.0000 C   0  0  0  0  0  0  0  0  0  0  0  0
    4.5556  -10.2575    0.0000 C   0  0  0  0  0  0  0  0  0  0  0  0
    5.2701   -9.8450    0.0000 C   0  0  0  0  0  0  0  0  0  0  0  0
    5.2701   -9.0200    0.0000 C   0  0  0  0  0  0  0  0  0  0  0  0
    4.5556   -8.6075    0.0000 C   0  0  0  0  0  0  0  0  0  0  0  0
    5.9846   -8.6075    0.0000 C   0  0  0  0  0  0  0  0  0  0  0  0
    5.9846   -7.7825    0.0000 C   0  0  0  0  0  0  0  0  0  0  0  0
    5.2701   -7.3700    0.0000 C   0  0  0  0  0  0  0  0  0  0  0  0
    4.5556   -7.7825    0.0000 C   0  0  0  0  0  0  0  0  0  0  0  0
    6.6991   -9.0200    0.0000 C   0  0  0  0  0  0  0  0  0  0  0  0
    7.4135   -8.6075    0.0000 C   0  0  0  0  0  0  0  0  0  0  0  0
    7.4135   -7.7825    0.0000 C   0  0  2  0  0  0  0  0  0  0  0  0
    6.6991   -7.3700    0.0000 O   0  0  0  0  0  0  0  0  0  0  0  0
    8.8425   -7.7825    0.0000 C   0  0  0  0  0  0  0  0  0  0  0  0
    8.1280   -7.3700    0.0000 C   0  0  0  0  0  0  0  0  0  0  0  0
    9.5569   -7.3700    0.0000 C   0  0  0  0  0  0  0  0  0  0  0  0
    9.5569   -6.5450    0.0000 C   0  0  0  0  0  0  0  0  0  0  0  0
    8.8425   -6.1325    0.0000 C   0  0  0  0  0  0  0  0  0  0  0  0
    8.1280   -6.5450    0.0000 C   0  0  0  0  0  0  0  0  0  0  0  0
    3.1267  -10.2575    0.0000 O   0  0  0  0  0  0  0  0  0  0  0  0
    5.2701   -6.5450    0.0000 O   0  0  0  0  0  0  0  0  0  0  0  0
   10.2714   -6.1325    0.0000 O   0  0  0  0  0  0  0  0  0  0  0  0
   10.2714   -7.7825    0.0000 O   0  0  0  0  0  0  0  0  0  0  0  0
  1  2  1  0  0  0  0
  2  3  1  0  0  0  0
  3  4  2  0  0  0  0
  4  5  1  0  0  0  0
  5  6  2  0  0  0  0
  6  1  1  0  0  0  0
  5  7  1  0  0  0  0
  7  8  2  0  0  0  0
  8  9  1  0  0  0  0
  9 10  2  0  0  0  0
 10  6  1  0  0  0  0
  7 11  1  0  0  0  0
 11 12  1  0  0  0  0
 12 13  1  0  0  0  0
 13 14  1  0  0  0  0
 14  8  1  0  0  0  0
 15 16  2  0  0  0  0
 13 16  1  6  0  0  0
 15 17  1  0  0  0  0
 17 18  2  0  0  0  0
 18 19  1  0  0  0  0
 19 20  2  0  0  0  0
 20 16  1  0  0  0  0
  2 21  2  0  0  0  0
  9 22  1  0  0  0  0
 18 23  1  0  0  0  0
 17 24  1  0  0  0  0
M  END
>  <cdx:fragmentId>
5

$$$$
