99980.cdx
  Mrv1902 05222410192D          

 23 24  0  0  0  0            999 V2000
    2.1895   -7.1569    0.0000 C   0  0  0  0  0  0  0  0  0  0  0  0
    2.1895   -7.9819    0.0000 C   0  0  0  0  0  0  0  0  0  0  0  0
    2.9040   -8.3944    0.0000 C   0  0  0  0  0  0  0  0  0  0  0  0
    3.6185   -7.9819    0.0000 C   0  0  0  0  0  0  0  0  0  0  0  0
    3.6185   -7.1569    0.0000 C   0  0  0  0  0  0  0  0  0  0  0  0
    2.9040   -6.7444    0.0000 C   0  0  0  0  0  0  0  0  0  0  0  0
    4.3329   -6.7444    0.0000 C   0  0  0  0  0  0  0  0  0  0  0  0
    5.0474   -7.1569    0.0000 C   0  0  0  0  0  0  0  0  0  0  0  0
    5.7619   -6.7444    0.0000 C   0  0  2  0  0  0  0  0  0  0  0  0
    6.4764   -7.1569    0.0000 C   0  0  0  0  0  0  0  0  0  0  0  0
    7.1908   -6.7444    0.0000 C   0  0  1  0  0  0  0  0  0  0  0  0
    7.9053   -7.1569    0.0000 C   0  0  0  0  0  0  0  0  0  0  0  0
    8.6198   -6.7444    0.0000 C   0  0  0  0  0  0  0  0  0  0  0  0
    9.3342   -7.1569    0.0000 C   0  0  0  0  0  0  0  0  0  0  0  0
    9.3342   -7.9819    0.0000 C   0  0  0  0  0  0  0  0  0  0  0  0
   10.0487   -8.3944    0.0000 C   0  0  0  0  0  0  0  0  0  0  0  0
   10.7632   -7.9819    0.0000 C   0  0  0  0  0  0  0  0  0  0  0  0
   10.7632   -7.1569    0.0000 C   0  0  0  0  0  0  0  0  0  0  0  0
   10.0487   -6.7444    0.0000 C   0  0  0  0  0  0  0  0  0  0  0  0
    7.1908   -5.9194    0.0000 O   0  0  0  0  0  0  0  0  0  0  0  0
   11.4777   -8.3944    0.0000 O   0  0  0  0  0  0  0  0  0  0  0  0
    5.7619   -5.9194    0.0000 O   0  0  0  0  0  0  0  0  0  0  0  0
    1.4751   -8.3944    0.0000 O   0  0  0  0  0  0  0  0  0  0  0  0
  1  2  2  0  0  0  0
  2  3  1  0  0  0  0
  3  4  2  0  0  0  0
  4  5  1  0  0  0  0
  5  6  2  0  0  0  0
  6  1  1  0  0  0  0
  5  7  1  0  0  0  0
  7  8  1  0  0  0  0
  8  9  1  0  0  0  0
  9 10  1  0  0  0  0
 10 11  1  0  0  0  0
 11 12  1  0  0  0  0
 12 13  1  0  0  0  0
 13 14  1  0  0  0  0
 14 15  2  0  0  0  0
 15 16  1  0  0  0  0
 16 17  2  0  0  0  0
 17 18  1  0  0  0  0
 18 19  2  0  0  0  0
 19 14  1  0  0  0  0
 11 20  1  6  0  0  0
 17 21  1  0  0  0  0
  9 22  1  1  0  0  0
  2 23  1  0  0  0  0
M  END
>  <cdx:fragmentId>
5

$$$$
