99984.cdx
  Mrv1902 05222410192D          

 17 17  0  0  0  0            999 V2000
    5.8907   -9.8636    0.0000 C   0  0  0  0  0  0  0  0  0  0  0  0
    6.6079  -10.2714    0.0000 C   0  0  0  0  0  0  0  0  0  0  0  0
    7.3197   -9.8542    0.0000 C   0  0  0  0  0  0  0  0  0  0  0  0
    7.3142   -9.0292    0.0000 C   0  0  0  0  0  0  0  0  0  0  0  0
    6.5971   -8.6214    0.0000 C   0  0  0  0  0  0  0  0  0  0  0  0
    5.8853   -9.0386    0.0000 C   0  0  0  0  0  0  0  0  0  0  0  0
    5.1790  -10.2807    0.0000 C   0  0  0  0  0  0  0  0  0  0  0  0
    8.0260   -8.6120    0.0000 O   0  0  0  0  0  0  0  0  0  0  0  0
    6.5916   -7.7964    0.0000 C   0  0  0  0  0  0  0  0  0  0  0  0
    7.3034   -7.3792    0.0000 C   0  0  0  0  0  0  0  0  0  0  0  0
    5.8745   -7.3886    0.0000 C   0  0  0  0  0  0  0  0  0  0  0  0
    5.8691   -6.5636    0.0000 C   0  0  0  0  0  0  0  0  0  0  0  0
    5.1627   -7.8058    0.0000 C   0  0  0  0  0  0  0  0  0  0  0  0
    7.2980   -6.5542    0.0000 C   0  0  0  0  0  0  0  0  0  0  0  0
    8.0097   -6.1371    0.0000 C   0  0  0  0  0  0  0  0  0  0  0  0
    8.0043   -5.3121    0.0000 O   0  0  0  0  0  0  0  0  0  0  0  0
    8.7269   -6.5448    0.0000 O   0  0  0  0  0  0  0  0  0  0  0  0
  1  2  2  0  0  0  0
  2  3  1  0  0  0  0
  3  4  2  0  0  0  0
  4  5  1  0  0  0  0
  5  6  2  0  0  0  0
  6  1  1  0  0  0  0
  1  7  1  0  0  0  0
  4  8  1  0  0  0  0
  5  9  1  0  0  0  0
  9 10  1  0  0  0  0
  9 11  1  0  0  0  0
 11 12  1  0  0  0  0
 11 13  1  0  0  0  0
 10 14  1  0  0  0  0
 14 15  1  0  0  0  0
 15 16  1  0  0  0  0
 15 17  2  0  0  0  0
M  END
>  <cdx:fragmentId>
5

$$$$
