99994.cdx
  Mrv1902 05222410192D          

 21 23  0  0  0  0            999 V2000
    5.4595   -6.4572    0.0000 C   0  0  0  0  0  0  0  0  0  0  0  0
    5.4595   -7.2822    0.0000 C   0  0  0  0  0  0  0  0  0  0  0  0
    6.1740   -7.6947    0.0000 C   0  0  0  0  0  0  0  0  0  0  0  0
    6.8885   -7.2822    0.0000 C   0  0  0  0  0  0  0  0  0  0  0  0
    7.6029   -7.6947    0.0000 C   0  0  0  0  0  0  0  0  0  0  0  0
    8.3174   -7.2822    0.0000 C   0  0  0  0  0  0  0  0  0  0  0  0
    8.3174   -6.4572    0.0000 C   0  0  0  0  0  0  0  0  0  0  0  0
    7.6029   -6.0447    0.0000 C   0  0  0  0  0  0  0  0  0  0  0  0
    6.8885   -6.4572    0.0000 C   0  0  0  0  0  0  0  0  0  0  0  0
    6.1740   -6.0447    0.0000 O   0  0  0  0  0  0  0  0  0  0  0  0
    9.1020   -6.2023    0.0000 O   0  0  0  0  0  0  0  0  0  0  0  0
    9.1020   -7.5372    0.0000 C   0  0  0  0  0  0  0  0  0  0  0  0
    9.5869   -6.8697    0.0000 C   0  0  0  0  0  0  0  0  0  0  0  0
    4.7450   -6.0447    0.0000 O   0  0  0  0  0  0  0  0  0  0  0  0
    7.6029   -8.5197    0.0000 O   0  0  0  0  0  0  0  0  0  0  0  0
    8.3174   -8.9322    0.0000 C   0  0  0  0  0  0  0  0  0  0  0  0
    8.3174   -9.7572    0.0000 C   0  0  2  0  0  0  0  0  0  0  0  0
    9.0319  -10.1697    0.0000 C   0  0  0  0  0  0  0  0  0  0  0  0
    9.0319  -10.9947    0.0000 C   0  0  0  0  0  0  0  0  0  0  0  0
    9.7463   -9.7572    0.0000 C   0  0  0  0  0  0  0  0  0  0  0  0
    7.6029  -10.1697    0.0000 O   0  0  0  0  0  0  0  0  0  0  0  0
  1  2  1  0  0  0  0
  2  3  2  0  0  0  0
  3  4  1  0  0  0  0
  4  5  2  0  0  0  0
  5  6  1  0  0  0  0
  6  7  2  0  0  0  0
  7  8  1  0  0  0  0
  8  9  2  0  0  0  0
  4  9  1  0  0  0  0
  9 10  1  0  0  0  0
  1 10  1  0  0  0  0
 12 13  2  0  0  0  0
 11 13  1  0  0  0  0
 12  6  1  0  0  0  0
 11  7  1  0  0  0  0
  1 14  2  0  0  0  0
 16 17  1  0  0  0  0
 17 18  1  0  0  0  0
 18 19  2  0  0  0  0
 15 16  1  0  0  0  0
 18 20  1  0  0  0  0
 17 21  1  6  0  0  0
  5 15  1  0  0  0  0
M  END
>  <cdx:fragmentId>
5

$$$$
