99998.cdx
  Mrv1902 05222410262D          

 13 13  0  0  0  0            999 V2000
    6.1274   -8.5118    0.0000 C   0  0  0  0  0  0  0  0  0  0  0  0
    6.1274   -9.3368    0.0000 C   0  0  0  0  0  0  0  0  0  0  0  0
    5.4129   -9.7493    0.0000 C   0  0  0  0  0  0  0  0  0  0  0  0
    4.6984   -9.3368    0.0000 C   0  0  0  0  0  0  0  0  0  0  0  0
    4.6984   -8.5118    0.0000 C   0  0  0  0  0  0  0  0  0  0  0  0
    5.4129   -8.0993    0.0000 C   0  0  0  0  0  0  0  0  0  0  0  0
    8.2708   -8.0993    0.0000 C   0  0  0  0  0  0  0  0  0  0  0  0
    7.5563   -8.5118    0.0000 C   0  0  0  0  0  0  0  0  0  0  0  0
    6.8419   -8.0993    0.0000 C   0  0  0  0  0  0  0  0  0  0  0  0
    8.2708   -7.2743    0.0000 O   0  0  0  0  0  0  0  0  0  0  0  0
    8.9853   -8.5118    0.0000 O   0  0  0  0  0  0  0  0  0  0  0  0
    7.5563   -9.3368    0.0000 O   0  0  0  0  0  0  0  0  0  0  0  0
    9.6997   -8.0993    0.0000 C   0  0  0  0  0  0  0  0  0  0  0  0
  1  2  1  0  0  0  0
  2  3  2  0  0  0  0
  3  4  1  0  0  0  0
  4  5  2  0  0  0  0
  5  6  1  0  0  0  0
  1  6  2  0  0  0  0
  7  8  1  0  0  0  0
  8  9  1  0  0  0  0
  7 10  2  0  0  0  0
  7 11  1  0  0  0  0
  1  9  1  0  0  0  0
  8 12  1  0  0  0  0
 11 13  1  0  0  0  0
M  END
>  <cdx:fragmentId>
5

$$$$
