99997.cdx
  Mrv1902 05222410202D          

 14 14  0  0  0  0            999 V2000
    8.9818   -8.0522    0.0000 C   0  0  0  0  0  0  0  0  0  0  0  0
    8.2674   -8.4647    0.0000 C   0  0  2  0  0  0  0  0  0  0  0  0
    7.5529   -8.0522    0.0000 C   0  0  0  0  0  0  0  0  0  0  0  0
    8.9818   -7.2272    0.0000 O   0  0  0  0  0  0  0  0  0  0  0  0
    9.6963   -8.4647    0.0000 O   0  0  0  0  0  0  0  0  0  0  0  0
    6.8384   -8.4647    0.0000 C   0  0  0  0  0  0  0  0  0  0  0  0
    6.1239   -8.0522    0.0000 C   0  0  0  0  0  0  0  0  0  0  0  0
    5.4095   -8.4647    0.0000 C   0  0  0  0  0  0  0  0  0  0  0  0
    5.4095   -9.2897    0.0000 C   0  0  0  0  0  0  0  0  0  0  0  0
    6.1239   -9.7022    0.0000 C   0  0  0  0  0  0  0  0  0  0  0  0
    6.8384   -9.2897    0.0000 C   0  0  0  0  0  0  0  0  0  0  0  0
    4.6950   -9.7022    0.0000 O   0  0  0  0  0  0  0  0  0  0  0  0
    4.6950   -8.0522    0.0000 O   0  0  0  0  0  0  0  0  0  0  0  0
    8.2674   -9.2897    0.0000 N   0  0  0  0  0  0  0  0  0  0  0  0
  1  2  1  0  0  0  0
  2  3  1  0  0  0  0
  1  4  2  0  0  0  0
  1  5  1  0  0  0  0
  6  7  1  0  0  0  0
  7  8  2  0  0  0  0
  8  9  1  0  0  0  0
  9 10  2  0  0  0  0
 10 11  1  0  0  0  0
  6 11  2  0  0  0  0
  9 12  1  0  0  0  0
  8 13  1  0  0  0  0
  3  6  1  0  0  0  0
  2 14  1  1  0  0  0
M  END
>  <cdx:fragmentId>
15

$$$$
