99999.cdx
  Mrv1902 05222410272D          

 12 13  0  0  0  0            999 V2000
    8.1917   -8.2014    0.0000 C   0  0  0  0  0  0  0  0  0  0  0  0
    8.1917   -7.3764    0.0000 C   0  0  0  0  0  0  0  0  0  0  0  0
    7.4772   -6.9639    0.0000 C   0  0  0  0  0  0  0  0  0  0  0  0
    6.7628   -7.3764    0.0000 C   0  0  0  0  0  0  0  0  0  0  0  0
    6.7628   -8.2014    0.0000 C   0  0  0  0  0  0  0  0  0  0  0  0
    7.4772   -8.6139    0.0000 C   0  0  0  0  0  0  0  0  0  0  0  0
    6.0483   -6.9639    0.0000 O   0  0  0  0  0  0  0  0  0  0  0  0
    5.3338   -7.3764    0.0000 C   0  0  0  0  0  0  0  0  0  0  0  0
    5.3338   -8.2014    0.0000 C   0  0  0  0  0  0  0  0  0  0  0  0
    6.0483   -8.6139    0.0000 C   0  0  0  0  0  0  0  0  0  0  0  0
    8.9062   -6.9639    0.0000 O   0  0  0  0  0  0  0  0  0  0  0  0
    4.6194   -6.9639    0.0000 O   0  0  0  0  0  0  0  0  0  0  0  0
  1  2  2  0  0  0  0
  2  3  1  0  0  0  0
  3  4  2  0  0  0  0
  4  5  1  0  0  0  0
  5  6  2  0  0  0  0
  6  1  1  0  0  0  0
  4  7  1  0  0  0  0
  7  8  1  0  0  0  0
  8  9  1  0  0  0  0
  9 10  2  0  0  0  0
 10  5  1  0  0  0  0
  2 11  1  0  0  0  0
  8 12  2  0  0  0  0
M  END
>  <cdx:fragmentId>
5

$$$$
