99991.cdx
  Mrv1902 05222410182D          

 15 16  0  0  0  0            999 V2000
    4.7238   -9.2376    0.0000 C   0  0  0  0  0  0  0  0  0  0  0  0
    5.2825   -9.8447    0.0000 C   0  0  0  0  0  0  0  0  0  0  0  0
    6.0875   -9.6643    0.0000 C   0  0  0  0  0  0  0  0  0  0  0  0
    6.3339   -8.8770    0.0000 C   0  0  0  0  0  0  0  0  0  0  0  0
    5.7752   -8.2700    0.0000 C   0  0  0  0  0  0  0  0  0  0  0  0
    4.9701   -8.4503    0.0000 C   0  0  0  0  0  0  0  0  0  0  0  0
    7.0838   -8.5332    0.0000 C   0  0  0  0  0  0  0  0  0  0  0  0
    6.9886   -7.7137    0.0000 C   0  0  0  0  0  0  0  0  0  0  0  0
    6.1798   -7.5510    0.0000 N   0  0  0  0  0  0  0  0  0  0  0  0
    7.8028   -8.9379    0.0000 C   0  0  0  0  0  0  0  0  0  0  0  0
    8.5127   -8.5176    0.0000 C   0  0  0  0  0  0  0  0  0  0  0  0
    9.2316   -8.9223    0.0000 C   0  0  0  0  0  0  0  0  0  0  0  0
    9.2406   -9.7472    0.0000 O   0  0  0  0  0  0  0  0  0  0  0  0
    9.9415   -8.5020    0.0000 O   0  0  0  0  0  0  0  0  0  0  0  0
    8.5037   -7.6927    0.0000 N   0  0  0  0  0  0  0  0  0  0  0  0
  1  2  2  0  0  0  0
  2  3  1  0  0  0  0
  3  4  2  0  0  0  0
  4  5  1  0  0  0  0
  5  6  2  0  0  0  0
  6  1  1  0  0  0  0
  4  7  1  0  0  0  0
  7  8  2  0  0  0  0
  8  9  1  0  0  0  0
  9  5  1  0  0  0  0
  7 10  1  0  0  0  0
 10 11  1  0  0  0  0
 11 12  1  0  0  0  0
 12 13  2  0  0  0  0
 12 14  1  0  0  0  0
 11 15  1  0  0  0  0
M  END
>  <cdx:fragmentId>
63

$$$$
