101999902.cdx
  Mrv1902 05222410202D          

 32 35  0  0  0  0            999 V2000
    8.0556  -16.1622    0.0000 C   0  0  0  0  0  0  0  0  0  0  0  0
    8.0556  -15.3372    0.0000 C   0  0  0  0  0  0  0  0  0  0  0  0
    7.3412  -14.9247    0.0000 C   0  0  0  0  0  0  0  0  0  0  0  0
    6.6267  -15.3372    0.0000 C   0  0  0  0  0  0  0  0  0  0  0  0
    5.9122  -14.9247    0.0000 C   0  0  0  0  0  0  0  0  0  0  0  0
    5.1977  -15.3372    0.0000 C   0  0  0  0  0  0  0  0  0  0  0  0
    5.1977  -16.1622    0.0000 C   0  0  0  0  0  0  0  0  0  0  0  0
    5.9122  -16.5747    0.0000 C   0  0  0  0  0  0  0  0  0  0  0  0
    6.6267  -16.1622    0.0000 C   0  0  0  0  0  0  0  0  0  0  0  0
    7.3412  -16.5747    0.0000 O   0  0  0  0  0  0  0  0  0  0  0  0
    7.3412  -14.0997    0.0000 O   0  0  0  0  0  0  0  0  0  0  0  0
    4.4833  -14.9247    0.0000 C   0  0  0  0  0  0  0  0  0  0  0  0
    3.7688  -15.3372    0.0000 C   0  0  0  0  0  0  0  0  0  0  0  0
    3.0543  -14.9247    0.0000 C   0  0  0  0  0  0  0  0  0  0  0  0
    3.0543  -14.0997    0.0000 C   0  0  0  0  0  0  0  0  0  0  0  0
    2.3399  -15.3372    0.0000 C   0  0  0  0  0  0  0  0  0  0  0  0
    2.3399  -14.5122    0.0000 O   0  0  0  0  0  0  0  0  0  0  0  0
   11.6280  -14.0997    0.0000 C   0  0  0  0  0  0  0  0  0  0  0  0
   11.6280  -14.9247    0.0000 C   0  0  0  0  0  0  0  0  0  0  0  0
   10.9135  -15.3372    0.0000 C   0  0  0  0  0  0  0  0  0  0  0  0
   10.1990  -14.9247    0.0000 C   0  0  0  0  0  0  0  0  0  0  0  0
    9.4846  -15.3372    0.0000 C   0  0  0  0  0  0  0  0  0  0  0  0
    8.7701  -14.9247    0.0000 C   0  0  0  0  0  0  0  0  0  0  0  0
    8.7701  -14.0997    0.0000 C   0  0  0  0  0  0  0  0  0  0  0  0
    9.4846  -13.6872    0.0000 C   0  0  0  0  0  0  0  0  0  0  0  0
   10.1990  -14.0997    0.0000 C   0  0  0  0  0  0  0  0  0  0  0  0
   10.9135  -13.6872    0.0000 O   0  0  0  0  0  0  0  0  0  0  0  0
   12.0405  -13.3852    0.0000 C   0  0  0  0  0  0  0  0  0  0  0  0
   12.4530  -14.0997    0.0000 C   0  0  0  0  0  0  0  0  0  0  0  0
    9.4846  -16.1622    0.0000 O   0  0  0  0  0  0  0  0  0  0  0  0
    4.4833  -16.5747    0.0000 O   0  0  0  0  0  0  0  0  0  0  0  0
    5.9122  -14.0997    0.0000 O   0  0  0  0  0  0  0  0  0  0  0  0
  1  2  2  0  0  0  0
  2  3  1  0  0  0  0
  3  4  1  0  0  0  0
  4  5  1  0  0  0  0
  5  6  2  0  0  0  0
  6  7  1  0  0  0  0
  7  8  2  0  0  0  0
  8  9  1  0  0  0  0
  4  9  2  0  0  0  0
  9 10  1  0  0  0  0
  1 10  1  0  0  0  0
  3 11  2  0  0  0  0
 12 13  1  0  0  0  0
 13 14  1  0  0  0  0
 14 15  1  0  0  0  0
 14 16  1  0  0  0  0
 14 17  1  0  0  0  0
  6 12  1  0  0  0  0
 18 19  1  0  0  0  0
 19 20  2  0  0  0  0
 20 21  1  0  0  0  0
 21 22  1  0  0  0  0
 22 23  2  0  0  0  0
 23 24  1  0  0  0  0
 24 25  2  0  0  0  0
 25 26  1  0  0  0  0
 21 26  2  0  0  0  0
 26 27  1  0  0  0  0
 18 27  1  0  0  0  0
 18 28  1  0  0  0  0
 18 29  1  0  0  0  0
 22 30  1  0  0  0  0
  2 23  1  0  0  0  0
  7 31  1  0  0  0  0
  5 32  1  0  0  0  0
M  END
>  <cdx:fragmentId>
10410

$$$$
