99990.cdx
  Mrv1902 05222410192D          

 22 24  0  0  0  0            999 V2000
    6.1205  -10.7659    0.0000 O   0  0  0  0  0  0  0  0  0  0  0  0
    3.9771   -8.7034    0.0000 C   0  0  0  0  0  0  0  0  0  0  0  0
    4.6916   -8.2909    0.0000 O   0  0  0  0  0  0  0  0  0  0  0  0
    5.4060   -7.0534    0.0000 C   0  0  0  0  0  0  0  0  0  0  0  0
    6.1205   -7.4659    0.0000 O   0  0  0  0  0  0  0  0  0  0  0  0
    8.9784   -7.4659    0.0000 C   0  0  0  0  0  0  0  0  0  0  0  0
    9.6929   -7.0534    0.0000 C   0  0  0  0  0  0  0  0  0  0  0  0
   10.4073   -7.4659    0.0000 C   0  0  0  0  0  0  0  0  0  0  0  0
   10.4073   -8.2909    0.0000 C   0  0  0  0  0  0  0  0  0  0  0  0
    9.6929   -8.7034    0.0000 C   0  0  0  0  0  0  0  0  0  0  0  0
    8.9784   -8.2909    0.0000 C   0  0  0  0  0  0  0  0  0  0  0  0
    7.5494  -10.7659    0.0000 O   0  0  0  0  0  0  0  0  0  0  0  0
    7.5494   -8.2909    0.0000 O   0  0  0  0  0  0  0  0  0  0  0  0
    6.8350   -8.7034    0.0000 C   0  0  0  0  0  0  0  0  0  0  0  0
    6.1205   -8.2909    0.0000 C   0  0  0  0  0  0  0  0  0  0  0  0
    5.4060   -8.7034    0.0000 C   0  0  0  0  0  0  0  0  0  0  0  0
    5.4060   -9.5284    0.0000 C   0  0  0  0  0  0  0  0  0  0  0  0
    6.1205   -9.9409    0.0000 C   0  0  0  0  0  0  0  0  0  0  0  0
    6.8350   -9.5284    0.0000 C   0  0  0  0  0  0  0  0  0  0  0  0
    7.5494   -9.9409    0.0000 C   0  0  0  0  0  0  0  0  0  0  0  0
    8.2639   -9.5284    0.0000 C   0  0  0  0  0  0  0  0  0  0  0  0
    8.2639   -8.7034    0.0000 C   0  0  1  0  0  0  0  0  0  0  0  0
 18  1  1  0  0  0  0
 16  3  1  0  0  0  0
  3  2  1  0  0  0  0
 15  5  1  0  0  0  0
  5  4  1  0  0  0  0
 22 11  1  6  0  0  0
 11  6  2  0  0  0  0
  7  6  1  0  0  0  0
  8  7  2  0  0  0  0
  9  8  1  0  0  0  0
 10  9  2  0  0  0  0
 11 10  1  0  0  0  0
 20 12  2  0  0  0  0
 22 13  1  0  0  0  0
 14 13  1  0  0  0  0
 19 14  2  0  0  0  0
 15 14  1  0  0  0  0
 16 15  2  0  0  0  0
 17 16  1  0  0  0  0
 18 17  2  0  0  0  0
 19 18  1  0  0  0  0
 20 19  1  0  0  0  0
 21 20  1  0  0  0  0
 22 21  1  0  0  0  0
M  END
>  <cdx:fragmentId>
5

$$$$
